# generated using pymatgen
data_Li2SiO3
_symmetry_space_group_name_H-M   Cmc2_1
_cell_length_a   9.49817854
_cell_length_b   5.45695739
_cell_length_c   4.72905398
_cell_angle_alpha   90.00000000
_cell_angle_beta   90.00000000
_cell_angle_gamma   90.00000000
_symmetry_Int_Tables_number   36
_chemical_formula_structural   Li2SiO3
_chemical_formula_sum   'Li8 Si4 O12'
_cell_volume   245.11233246
_cell_formula_units_Z   4
loop_
 _symmetry_equiv_pos_site_id
 _symmetry_equiv_pos_as_xyz
  1  'x, y, z'
  2  '-x, -y, z+1/2'
  3  '-x, y, z'
  4  'x, -y, z+1/2'
  5  'x+1/2, y+1/2, z'
  6  '-x+1/2, -y+1/2, z+1/2'
  7  '-x+1/2, y+1/2, z'
  8  'x+1/2, -y+1/2, z+1/2'
loop_
 _atom_site_type_symbol
 _atom_site_label
 _atom_site_symmetry_multiplicity
 _atom_site_fract_x
 _atom_site_fract_y
 _atom_site_fract_z
 _atom_site_occupancy
  Li  Li1  8  0.173290  0.343694  0.494982  1
  Si  Si2  4  0.000000  0.170931  0.999189  1
  O  O3  8  0.144508  0.308504  0.080112  1
  O  O4  4  0.000000  0.114054  0.645825  1
