# generated using pymatgen
data_LiFePO4
_symmetry_space_group_name_H-M   'P 1'
_cell_length_a   10.18542334
_cell_length_b   5.11029293
_cell_length_c   13.73501574
_cell_angle_alpha   90.00000000
_cell_angle_beta   90.00000000
_cell_angle_gamma   90.00000000
_symmetry_Int_Tables_number   1
_chemical_formula_structural   LiFePO4
_chemical_formula_sum   'Li8 Fe8 P8 O32'
_cell_volume   714.91439397
_cell_formula_units_Z   8
loop_
 _symmetry_equiv_pos_site_id
 _symmetry_equiv_pos_as_xyz
  1  'x, y, z'
loop_
 _atom_site_type_symbol
 _atom_site_label
 _atom_site_symmetry_multiplicity
 _atom_site_fract_x
 _atom_site_fract_y
 _atom_site_fract_z
 _atom_site_occupancy
  Li  Li1  1  0.030647  0.928662  0.502296  1.0
  Li  Li2  1  0.969353  0.071338  0.002296  1.0
  Li  Li3  1  0.469353  0.928662  0.002296  1.0
  Li  Li4  1  0.530647  0.071338  0.502296  1.0
  Li  Li5  1  0.220447  0.549088  0.750184  1.0
  Li  Li6  1  0.779553  0.450912  0.250184  1.0
  Li  Li7  1  0.279553  0.549088  0.250184  1.0
  Li  Li8  1  0.720447  0.450912  0.750184  1.0
  Fe  Fe9  1  0.034048  0.059353  0.752615  1.0
  Fe  Fe10  1  0.965952  0.940647  0.252615  1.0
  Fe  Fe11  1  0.465952  0.059353  0.252615  1.0
  Fe  Fe12  1  0.534048  0.940647  0.752615  1.0
  Fe  Fe13  1  0.215031  0.555920  0.000725  1.0
  Fe  Fe14  1  0.784969  0.444080  0.500725  1.0
  Fe  Fe15  1  0.284969  0.555920  0.500725  1.0
  Fe  Fe16  1  0.715031  0.444080  0.000725  1.0
  P  P17  1  0.032055  0.434092  0.376322  1.0
  P  P18  1  0.967945  0.565908  0.876322  1.0
  P  P19  1  0.467945  0.434092  0.876322  1.0
  P  P20  1  0.532055  0.565908  0.376322  1.0
  P  P21  1  0.216150  0.049524  0.127674  1.0
  P  P22  1  0.783850  0.950476  0.627674  1.0
  P  P23  1  0.283850  0.049524  0.627674  1.0
  P  P24  1  0.716150  0.950476  0.127674  1.0
  O  O25  1  0.000409  0.864686  0.879576  1.0
  O  O26  1  0.999591  0.135314  0.379576  1.0
  O  O27  1  0.499591  0.864686  0.379576  1.0
  O  O28  1  0.500409  0.135314  0.879576  1.0
  O  O29  1  0.027618  0.436626  0.969009  1.0
  O  O30  1  0.972382  0.563374  0.469009  1.0
  O  O31  1  0.472382  0.436626  0.469009  1.0
  O  O32  1  0.527618  0.563374  0.969009  1.0
  O  O33  1  0.032665  0.450875  0.782976  1.0
  O  O34  1  0.967335  0.549125  0.282976  1.0
  O  O35  1  0.467335  0.450875  0.282976  1.0
  O  O36  1  0.532665  0.549125  0.782976  1.0
  O  O37  1  0.066419  0.989147  0.126396  1.0
  O  O38  1  0.933581  0.010853  0.626396  1.0
  O  O39  1  0.433581  0.989147  0.626396  1.0
  O  O40  1  0.566419  0.010853  0.126396  1.0
  O  O41  1  0.182034  0.487370  0.375038  1.0
  O  O42  1  0.817966  0.512630  0.875038  1.0
  O  O43  1  0.317966  0.487370  0.875038  1.0
  O  O44  1  0.682034  0.512630  0.375038  1.0
  O  O45  1  0.221627  0.931422  0.720933  1.0
  O  O46  1  0.778373  0.068578  0.220933  1.0
  O  O47  1  0.278373  0.931422  0.220933  1.0
  O  O48  1  0.721627  0.068578  0.720933  1.0
  O  O49  1  0.221805  0.924681  0.534885  1.0
  O  O50  1  0.778195  0.075319  0.034885  1.0
  O  O51  1  0.278195  0.924681  0.034885  1.0
  O  O52  1  0.721805  0.075319  0.534885  1.0
  O  O53  1  0.241969  0.350211  0.126973  1.0
  O  O54  1  0.758031  0.649789  0.626973  1.0
  O  O55  1  0.258031  0.350211  0.626973  1.0
  O  O56  1  0.741969  0.649789  0.126973  1.0
