data_ZnBi6P2O15_mvc-16210_computed
_audit_creation_date              2019-04-11
_audit_creation_method            'Materials Studio'
_symmetry_space_group_name_H-M    'P1'
_symmetry_Int_Tables_number       1
_symmetry_cell_setting            triclinic
loop_
_symmetry_equiv_pos_as_xyz
  x,y,z
_cell_length_a                    15.4709
_cell_length_b                    5.5237
_cell_length_c                    17.2046
_cell_angle_alpha                 90.0000
_cell_angle_beta                  104.4836
_cell_angle_gamma                 90.0000
loop_
_atom_site_label
_atom_site_type_symbol
_atom_site_fract_x
_atom_site_fract_y
_atom_site_fract_z
_atom_site_U_iso_or_equiv
_atom_site_adp_type
_atom_site_occupancy
Zn1    Zn    0.18706   0.80965  -0.23229   0.00000  Uiso   1.00
Bi2    Bi    0.02550   0.79697   0.40495   0.00000  Uiso   1.00
Bi3    Bi    0.02619   0.25289  -0.25735   0.00000  Uiso   1.00
Bi4    Bi    0.06964   0.80012  -0.07716   0.00000  Uiso   1.00
Bi5    Bi    0.09632   0.30425   0.08782   0.00000  Uiso   1.00
Bi6    Bi    0.14304   0.78135   0.24270   0.00000  Uiso   1.00
Bi7    Bi    0.21081   0.31779   0.38988   0.00000  Uiso   1.00
P8     P     0.14071   0.37220  -0.42103   0.00000  Uiso   1.00
P9     P     0.21393   0.31845  -0.10273   0.00000  Uiso   1.00
O10    O     0.02560   0.05994   0.16211   0.00000  Uiso   1.00
O11    O     0.03195   0.56544   0.16020   0.00000  Uiso   1.00
O12    O     0.04970   0.41467  -0.39798   0.00000  Uiso   1.00
O13    O     0.06689   0.88331  -0.29161   0.00000  Uiso   1.00
O14    O     0.09465   0.07402   0.33923   0.00000  Uiso   1.00
O15    O     0.09614   0.58370   0.33693   0.00000  Uiso   1.00
O16    O     0.14631   0.53572  -0.49366   0.00000  Uiso   1.00
O17    O     0.15149   0.10214  -0.43913   0.00000  Uiso   1.00
O18    O     0.16809   0.10143  -0.15787   0.00000  Uiso   1.00
O19    O     0.17765   0.32202  -0.02750   0.00000  Uiso   1.00
O20    O     0.18046   0.55655  -0.15214   0.00000  Uiso   1.00
O21    O     0.18308   0.79679   0.08799   0.00000  Uiso   1.00
O22    O     0.20633   0.39667   0.26169   0.00000  Uiso   1.00
O23    O     0.21764   0.46038  -0.34778   0.00000  Uiso   1.00
Zn24   Zn    0.68706   0.30965  -0.23229   0.00000  Uiso   1.00
Bi25   Bi    0.52550   0.29697   0.40495   0.00000  Uiso   1.00
Bi26   Bi    0.52619   0.75289  -0.25735   0.00000  Uiso   1.00
Bi27   Bi    0.56964   0.30012  -0.07716   0.00000  Uiso   1.00
Bi28   Bi    0.59632   0.80425   0.08782   0.00000  Uiso   1.00
Bi29   Bi    0.64304   0.28135   0.24270   0.00000  Uiso   1.00
Bi30   Bi    0.71081   0.81779   0.38988   0.00000  Uiso   1.00
P31    P     0.64071   0.87220  -0.42103   0.00000  Uiso   1.00
P32    P     0.71393   0.81845  -0.10273   0.00000  Uiso   1.00
O33    O     0.52560   0.55994   0.16211   0.00000  Uiso   1.00
O34    O     0.53195   0.06544   0.16020   0.00000  Uiso   1.00
O35    O     0.54970   0.91467  -0.39798   0.00000  Uiso   1.00
O36    O     0.56689   0.38331  -0.29161   0.00000  Uiso   1.00
O37    O     0.59465   0.57402   0.33923   0.00000  Uiso   1.00
O38    O     0.59614   0.08370   0.33693   0.00000  Uiso   1.00
O39    O     0.64631   0.03572  -0.49366   0.00000  Uiso   1.00
O40    O     0.65149   0.60214  -0.43913   0.00000  Uiso   1.00
O41    O     0.66809   0.60143  -0.15787   0.00000  Uiso   1.00
O42    O     0.67765   0.82202  -0.02750   0.00000  Uiso   1.00
O43    O     0.68046   0.05655  -0.15214   0.00000  Uiso   1.00
O44    O     0.68308   0.29679   0.08799   0.00000  Uiso   1.00
O45    O     0.70633   0.89667   0.26169   0.00000  Uiso   1.00
O46    O     0.71764   0.96038  -0.34778   0.00000  Uiso   1.00
Zn47   Zn    0.81294   0.80965   0.23229   0.00000  Uiso   1.00
Bi48   Bi    0.97450   0.79697  -0.40495   0.00000  Uiso   1.00
Bi49   Bi    0.97381   0.25289   0.25735   0.00000  Uiso   1.00
Bi50   Bi    0.93036   0.80012   0.07716   0.00000  Uiso   1.00
Bi51   Bi    0.90368   0.30425  -0.08782   0.00000  Uiso   1.00
Bi52   Bi    0.85696   0.78135  -0.24270   0.00000  Uiso   1.00
Bi53   Bi    0.78919   0.31779  -0.38988   0.00000  Uiso   1.00
P54    P     0.85929   0.37220   0.42103   0.00000  Uiso   1.00
P55    P     0.78607   0.31845   0.10273   0.00000  Uiso   1.00
O56    O     0.97440   0.05994  -0.16211   0.00000  Uiso   1.00
O57    O     0.96805   0.56544  -0.16020   0.00000  Uiso   1.00
O58    O     0.95030   0.41467   0.39798   0.00000  Uiso   1.00
O59    O     0.93311   0.88331   0.29161   0.00000  Uiso   1.00
O60    O     0.90535   0.07402  -0.33923   0.00000  Uiso   1.00
O61    O     0.90386   0.58370  -0.33693   0.00000  Uiso   1.00
O62    O     0.85369   0.53572   0.49366   0.00000  Uiso   1.00
O63    O     0.84851   0.10214   0.43913   0.00000  Uiso   1.00
O64    O     0.83191   0.10143   0.15787   0.00000  Uiso   1.00
O65    O     0.82235   0.32202   0.02750   0.00000  Uiso   1.00
O66    O     0.81954   0.55655   0.15214   0.00000  Uiso   1.00
O67    O     0.81692   0.79679  -0.08799   0.00000  Uiso   1.00
O68    O     0.79367   0.39667  -0.26169   0.00000  Uiso   1.00
O69    O     0.78236   0.46038   0.34778   0.00000  Uiso   1.00
Zn70   Zn    0.31294   0.30965   0.23229   0.00000  Uiso   1.00
Bi71   Bi    0.47450   0.29697  -0.40495   0.00000  Uiso   1.00
Bi72   Bi    0.47381   0.75289   0.25735   0.00000  Uiso   1.00
Bi73   Bi    0.43036   0.30012   0.07716   0.00000  Uiso   1.00
Bi74   Bi    0.40368   0.80425  -0.08782   0.00000  Uiso   1.00
Bi75   Bi    0.35696   0.28135  -0.24270   0.00000  Uiso   1.00
Bi76   Bi    0.28919   0.81779  -0.38988   0.00000  Uiso   1.00
P77    P     0.35929   0.87220   0.42103   0.00000  Uiso   1.00
P78    P     0.28607   0.81845   0.10273   0.00000  Uiso   1.00
O79    O     0.47440   0.55994  -0.16211   0.00000  Uiso   1.00
O80    O     0.46805   0.06544  -0.16020   0.00000  Uiso   1.00
O81    O     0.45030   0.91467   0.39798   0.00000  Uiso   1.00
O82    O     0.43311   0.38331   0.29161   0.00000  Uiso   1.00
O83    O     0.40535   0.57402  -0.33923   0.00000  Uiso   1.00
O84    O     0.40386   0.08370  -0.33693   0.00000  Uiso   1.00
O85    O     0.35369   0.03572   0.49366   0.00000  Uiso   1.00
O86    O     0.34851   0.60214   0.43913   0.00000  Uiso   1.00
O87    O     0.33191   0.60143   0.15787   0.00000  Uiso   1.00
O88    O     0.32235   0.82202   0.02750   0.00000  Uiso   1.00
O89    O     0.31954   0.05655   0.15214   0.00000  Uiso   1.00
O90    O     0.31692   0.29679  -0.08799   0.00000  Uiso   1.00
O91    O     0.29367   0.89667  -0.26169   0.00000  Uiso   1.00
O92    O     0.28236   0.96038   0.34778   0.00000  Uiso   1.00
O93    O     0.00000   0.05101   0.00000   0.00000  Uiso   1.00
O94    O     0.00000   0.54328   0.00000   0.00000  Uiso   1.00
O95    O     0.50000   0.55101   0.00000   0.00000  Uiso   1.00
O96    O     0.50000   0.04328   0.00000   0.00000  Uiso   1.00
loop_
_geom_bond_atom_site_label_1
_geom_bond_atom_site_label_2
_geom_bond_distance
_geom_bond_site_symmetry_2
_ccdc_geom_bond_type
Zn1    O13     1.927   .     S
Zn1    O18     2.124   1_565 S
Zn1    O20     1.984   .     S
Zn1    O91     1.904   .     S
Bi2    O14     2.317   1_565 S
Bi2    O15     2.143   .     S
Bi2    O58     2.399   1_455 S
Bi2    O59     2.163   1_455 S
Bi3    O13     2.258   1_545 S
Bi3    O60     2.267   1_455 S
Bi3    O56     2.263   1_455 S
Bi4    O93     2.358   1_565 S
Bi4    O94     2.377   .     S
Bi4    O56     2.300   1_465 S
Bi4    O57     2.251   1_455 S
Bi5    O10     2.313   .     S
Bi5    O11     2.290   .     S
Bi5    O93     2.310   .     S
Bi5    O94     2.263   .     S
Bi6    O10     2.516   1_565 S
Bi6    O11     2.274   .     S
Bi6    O15     2.221   .     S
Bi6    O22     2.328   .     S
Bi7    O14     2.240   .     S
Bi7    O15     2.308   .     S
Bi7    O22     2.232   .     S
Bi7    O92     2.459   1_545 S
P8     O12     1.573   .     S
P8     O16     1.562   .     D
P8     O17     1.541   .     S
P8     O23     1.579   .     S
P9     O18     1.582   .     S
P9     O19     1.534   .     S
P9     O20     1.581   .     S
P9     O90     1.554   .     D
O10    Bi6     2.516   1_545 S
O10    Bi49    2.263   1_455 S
O10    Bi50    2.300   1_445 S
O11    Bi50    2.251   1_455 S
O12    Bi48    2.399   1_455 S
O13    Bi3     2.258   1_565 S
O13    Bi48    2.163   1_455 S
O14    Bi2     2.317   1_545 S
O14    Bi49    2.267   1_455 S
O18    Zn1     2.124   1_545 S
O21    P78     1.554   .     D
O22    Zn70    1.904   .     S
O23    Bi76    2.459   .     S
Zn24   O36     1.927   .     S
Zn24   O41     2.124   .     S
Zn24   O43     1.984   .     S
Zn24   O68     1.904   .     S
Bi25   O37     2.317   .     S
Bi25   O38     2.143   .     S
Bi25   O81     2.399   1_545 S
Bi25   O82     2.163   .     S
Bi26   O36     2.258   .     S
Bi26   O83     2.267   .     S
Bi26   O79     2.263   .     S
Bi27   O95     2.358   .     S
Bi27   O96     2.377   .     S
Bi27   O79     2.300   .     S
Bi27   O80     2.251   .     S
Bi28   O33     2.313   .     S
Bi28   O34     2.290   1_565 S
Bi28   O95     2.310   .     S
Bi28   O96     2.263   1_565 S
Bi29   O33     2.516   .     S
Bi29   O34     2.274   .     S
Bi29   O38     2.221   .     S
Bi29   O45     2.328   1_545 S
Bi30   O37     2.240   .     S
Bi30   O38     2.308   1_565 S
Bi30   O45     2.232   .     S
Bi30   O69     2.459   .     S
P31    O35     1.573   .     S
P31    O39     1.562   1_565 D
P31    O40     1.541   .     S
P31    O46     1.579   .     S
P32    O41     1.582   .     S
P32    O42     1.534   .     S
P32    O43     1.581   1_565 S
P32    O67     1.554   .     D
O33    Bi72    2.263   .     S
O33    Bi73    2.300   .     S
O34    Bi28    2.290   1_545 S
O34    Bi73    2.251   .     S
O35    Bi71    2.399   1_565 S
O36    Bi71    2.163   .     S
O37    Bi72    2.267   .     S
O38    Bi30    2.308   1_545 S
O39    P31     1.562   1_545 D
O43    P32     1.581   1_545 S
O44    P55     1.554   .     D
O45    Bi29    2.328   1_565 S
O45    Zn47    1.904   .     S
O46    Bi53    2.459   1_565 S
Zn47   O59     1.927   .     S
Zn47   O64     2.124   1_565 S
Zn47   O66     1.984   .     S
Bi48   O60     2.317   1_565 S
Bi48   O61     2.143   .     S
Bi48   O12     2.399   1_655 S
Bi48   O13     2.163   1_655 S
Bi49   O59     2.258   1_545 S
Bi49   O14     2.267   1_655 S
Bi49   O10     2.263   1_655 S
Bi50   O93     2.358   1_665 S
Bi50   O94     2.377   1_655 S
Bi50   O10     2.300   1_665 S
Bi50   O11     2.251   1_655 S
Bi51   O56     2.313   .     S
Bi51   O57     2.290   .     S
Bi51   O93     2.310   1_655 S
Bi51   O94     2.263   1_655 S
Bi52   O56     2.516   1_565 S
Bi52   O57     2.274   .     S
Bi52   O61     2.221   .     S
Bi52   O68     2.328   .     S
Bi53   O60     2.240   .     S
Bi53   O61     2.308   .     S
Bi53   O68     2.232   .     S
Bi53   O46     2.459   1_545 S
P54    O58     1.573   .     S
P54    O62     1.562   .     D
P54    O63     1.541   .     S
P54    O69     1.579   .     S
P55    O64     1.582   .     S
P55    O65     1.534   .     S
P55    O66     1.581   .     S
O56    Bi52    2.516   1_545 S
O56    Bi3     2.263   1_655 S
O56    Bi4     2.300   1_645 S
O57    Bi4     2.251   1_655 S
O58    Bi2     2.399   1_655 S
O59    Bi49    2.258   1_565 S
O59    Bi2     2.163   1_655 S
O60    Bi48    2.317   1_545 S
O60    Bi3     2.267   1_655 S
O64    Zn47    2.124   1_545 S
Zn70   O82     1.927   .     S
Zn70   O87     2.124   .     S
Zn70   O89     1.984   .     S
Bi71   O83     2.317   .     S
Bi71   O84     2.143   .     S
Bi71   O35     2.399   1_545 S
Bi72   O82     2.258   .     S
Bi73   O95     2.358   .     S
Bi73   O96     2.377   .     S
Bi74   O79     2.313   .     S
Bi74   O80     2.290   1_565 S
Bi74   O95     2.310   .     S
Bi74   O96     2.263   1_565 S
Bi75   O79     2.516   .     S
Bi75   O80     2.274   .     S
Bi75   O84     2.221   .     S
Bi75   O91     2.328   1_545 S
Bi76   O83     2.240   .     S
Bi76   O84     2.308   1_565 S
Bi76   O91     2.232   .     S
P77    O81     1.573   .     S
P77    O85     1.562   1_565 D
P77    O86     1.541   .     S
P77    O92     1.579   .     S
P78    O87     1.582   .     S
P78    O88     1.534   .     S
P78    O89     1.581   1_565 S
O80    Bi74    2.290   1_545 S
O81    Bi25    2.399   1_565 S
O84    Bi76    2.308   1_545 S
O85    P77     1.562   1_545 D
O89    P78     1.581   1_545 S
O91    Bi75    2.328   1_565 S
O92    Bi7     2.459   1_565 S
O93    Bi51    2.310   1_455 S
O93    Bi4     2.358   1_545 S
O93    Bi50    2.358   1_445 S
O94    Bi51    2.263   1_455 S
O94    Bi50    2.377   1_455 S
O96    Bi28    2.263   1_545 S
O96    Bi74    2.263   1_545 S
