# generated using pymatgen
data_Li10Co4O9
_symmetry_space_group_name_H-M   P4_2/nmc
_cell_length_a   9.82151734
_cell_length_b   9.82151734
_cell_length_c   4.70031211
_cell_angle_alpha   90.00000000
_cell_angle_beta   90.00000000
_cell_angle_gamma   90.00000000
_symmetry_Int_Tables_number   137
_chemical_formula_structural   Li10Co4O9
_chemical_formula_sum   'Li20 Co8 O18'
_cell_volume   453.40246026
_cell_formula_units_Z   2
loop_
 _symmetry_equiv_pos_site_id
 _symmetry_equiv_pos_as_xyz
  1  'x, y, z'
  2  '-y+1/2, x+1/2, z+1/2'
  3  '-x, -y, z'
  4  'y+1/2, -x+1/2, z+1/2'
  5  'x+1/2, -y+1/2, -z+1/2'
  6  '-y, -x, -z'
  7  '-x+1/2, y+1/2, -z+1/2'
  8  'y, x, -z'
  9  '-x+1/2, -y+1/2, -z+1/2'
  10  'y, -x, -z'
  11  'x+1/2, y+1/2, -z+1/2'
  12  '-y, x, -z'
  13  '-x, y, z'
  14  'y+1/2, x+1/2, z+1/2'
  15  'x, -y, z'
  16  '-y+1/2, -x+1/2, z+1/2'
loop_
 _atom_site_type_symbol
 _atom_site_label
 _atom_site_symmetry_multiplicity
 _atom_site_fract_x
 _atom_site_fract_y
 _atom_site_fract_z
 _atom_site_occupancy
  Li  Li1  16  0.144542  0.313203  0.790466  1
  Li  Li2  4  0.000000  0.500000  0.331703  1
  Co  Co3  8  0.000000  0.161307  0.269347  1
  O  O4  8  0.000000  0.342081  0.072644  1
  O  O5  8  0.173383  0.826617  0.500000  1
  O  O6  2  0.000000  0.000000  0.000000  1
