# generated using pymatgen
data_Li13Mn21O48
_symmetry_space_group_name_H-M   Cm
_cell_length_a   10.18481036
_cell_length_b   5.83788506
_cell_length_c   28.71341549
_cell_angle_alpha   90.00000000
_cell_angle_beta   90.07075487
_cell_angle_gamma   90.00000000
_symmetry_Int_Tables_number   8
_chemical_formula_structural   Li13Mn21O48
_chemical_formula_sum   'Li26 Mn42 O96'
_cell_volume   1707.23384208
_cell_formula_units_Z   2
loop_
 _symmetry_equiv_pos_site_id
 _symmetry_equiv_pos_as_xyz
  1  'x, y, z'
  2  'x, -y, z'
  3  'x+1/2, y+1/2, z'
  4  'x+1/2, -y+1/2, z'
loop_
 _atom_site_type_symbol
 _atom_site_label
 _atom_site_symmetry_multiplicity
 _atom_site_fract_x
 _atom_site_fract_y
 _atom_site_fract_z
 _atom_site_occupancy
  Li  Li1  2  0.000398  0.500000  0.307560  1
  Li  Li2  2  0.002285  0.500000  0.684758  1
  Li  Li3  2  0.164408  0.000000  0.481827  1
  Li  Li4  2  0.165012  0.000000  0.979477  1
  Li  Li5  2  0.166216  0.000000  0.856951  1
  Li  Li6  2  0.167071  0.000000  0.357970  1
  Li  Li7  2  0.325330  0.500000  0.643755  1
  Li  Li8  2  0.330746  0.500000  0.144789  1
  Li  Li9  2  0.333066  0.500000  0.832843  1
  Li  Li10  2  0.333367  0.000000  0.583295  1
  Li  Li11  2  0.333612  0.500000  0.333381  1
  Li  Li12  2  0.341427  0.500000  0.522816  1
  Li  Li13  2  0.499630  0.000000  0.808811  1
  Mn  Mn14  4  0.083270  0.251760  0.083265  1
  Mn  Mn15  4  0.083324  0.249971  0.583303  1
  Mn  Mn16  4  0.250170  0.253062  0.749905  1
  Mn  Mn17  4  0.251027  0.252944  0.250149  1
  Mn  Mn18  4  0.414954  0.254383  0.916670  1
  Mn  Mn19  4  0.416540  0.252976  0.416698  1
  Mn  Mn20  2  0.000001  0.500000  0.501859  1
  Mn  Mn21  2  0.000376  0.500000  0.000692  1
  Mn  Mn22  2  0.165802  0.000000  0.167846  1
  Mn  Mn23  2  0.166721  0.000000  0.664721  1
  Mn  Mn24  2  0.169116  0.500000  0.416543  1
  Mn  Mn25  2  0.169354  0.500000  0.916581  1
  Mn  Mn26  2  0.334315  0.000000  0.083618  1
  Mn  Mn27  2  0.497565  0.500000  0.750056  1
  Mn  Mn28  2  0.498071  0.500000  0.250174  1
  O  O29  4  0.073463  0.278901  0.956698  1
  O  O30  4  0.075236  0.278347  0.455724  1
  O  O31  4  0.091451  0.221700  0.710919  1
  O  O32  4  0.094029  0.218174  0.210367  1
  O  O33  4  0.229845  0.229455  0.625986  1
  O  O34  4  0.238986  0.223362  0.122705  1
  O  O35  4  0.256422  0.268512  0.882309  1
  O  O36  4  0.257951  0.268777  0.382287  1
  O  O37  4  0.408737  0.268859  0.784463  1
  O  O38  4  0.409712  0.269744  0.284474  1
  O  O39  4  0.429750  0.220573  0.044213  1
  O  O40  4  0.436860  0.229435  0.540643  1
  O  O41  2  0.000387  0.500000  0.381719  1
  O  O42  2  0.009597  0.500000  0.617710  1
  O  O43  2  0.014701  0.000000  0.622762  1
  O  O44  2  0.017373  0.500000  0.119197  1
  O  O45  2  0.017377  0.000000  0.122747  1
  O  O46  2  0.147338  0.500000  0.043876  1
  O  O47  2  0.152052  0.500000  0.543848  1
  O  O48  2  0.152773  0.000000  0.046994  1
  O  O49  2  0.157121  0.000000  0.548903  1
  O  O50  2  0.166263  0.000000  0.784934  1
  O  O51  2  0.166647  0.000000  0.285173  1
  O  O52  2  0.179935  0.500000  0.784663  1
  O  O53  2  0.180614  0.500000  0.284653  1
  O  O54  2  0.311077  0.000000  0.209927  1
  O  O55  2  0.312976  0.000000  0.709584  1
  O  O56  2  0.332860  0.500000  0.951786  1
  O  O57  2  0.333019  0.500000  0.714208  1
  O  O58  2  0.333487  0.500000  0.214216  1
  O  O59  2  0.333733  0.500000  0.452377  1
  O  O60  2  0.352891  0.000000  0.957306  1
  O  O61  2  0.353749  0.000000  0.457059  1
  O  O62  2  0.486701  0.500000  0.882140  1
  O  O63  2  0.486798  0.500000  0.382086  1
  O  O64  2  0.499852  0.000000  0.881917  1
