# generated using pymatgen
data_Li13Co15O28
_symmetry_space_group_name_H-M   P-1
_cell_length_a   7.73024458
_cell_length_b   8.33398725
_cell_length_c   8.77102746
_cell_angle_alpha   103.29165815
_cell_angle_beta   103.77767038
_cell_angle_gamma   105.83481701
_symmetry_Int_Tables_number   2
_chemical_formula_structural   Li13Co15O28
_chemical_formula_sum   'Li13 Co15 O28'
_cell_volume   500.99369148
_cell_formula_units_Z   1
loop_
 _symmetry_equiv_pos_site_id
 _symmetry_equiv_pos_as_xyz
  1  'x, y, z'
  2  '-x, -y, -z'
loop_
 _atom_site_type_symbol
 _atom_site_label
 _atom_site_symmetry_multiplicity
 _atom_site_fract_x
 _atom_site_fract_y
 _atom_site_fract_z
 _atom_site_occupancy
  Li  Li1  2  0.070748  0.214887  0.284952  1
  Li  Li2  2  0.140749  0.427702  0.071253  1
  Li  Li3  2  0.212256  0.643827  0.855434  1
  Li  Li4  2  0.284710  0.855366  0.644498  1
  Li  Li5  2  0.356698  0.072469  0.429226  1
  Li  Li6  2  0.426895  0.283812  0.213994  1
  Li  Li7  1  0.000000  0.000000  0.500000  1
  Co  Co8  2  0.083982  0.715184  0.284004  1
  Co  Co9  2  0.140607  0.929026  0.071499  1
  Co  Co10  2  0.214633  0.141432  0.852714  1
  Co  Co11  2  0.278806  0.356095  0.639803  1
  Co  Co12  2  0.353233  0.568967  0.429960  1
  Co  Co13  2  0.425472  0.787395  0.216144  1
  Co  Co14  1  0.000000  0.500000  0.500000  1
  Co  Co15  1  0.500000  0.000000  0.000000  1
  Co  Co16  1  0.500000  0.500000  0.000000  1
  O  O17  2  0.010471  0.271800  0.513542  1
  O  O18  2  0.074478  0.957022  0.278251  1
  O  O19  2  0.075417  0.474238  0.302010  1
  O  O20  2  0.135308  0.170342  0.058536  1
  O  O21  2  0.141929  0.683641  0.078617  1
  O  O22  2  0.219180  0.901452  0.867086  1
  O  O23  2  0.229995  0.393125  0.862249  1
  O  O24  2  0.267435  0.594320  0.628296  1
  O  O25  2  0.280984  0.113151  0.651445  1
  O  O26  2  0.355296  0.808402  0.429438  1
  O  O27  2  0.363046  0.335750  0.434434  1
  O  O28  2  0.425751  0.030708  0.198855  1
  O  O29  2  0.445646  0.541251  0.212080  1
  O  O30  2  0.492097  0.258229  0.996285  1
