# generated using pymatgen
data_Li16(CoO4)3
_symmetry_space_group_name_H-M   P1
_cell_length_a   6.53781061
_cell_length_b   6.54618168
_cell_length_c   14.02860669
_cell_angle_alpha   90.11377570
_cell_angle_beta   90.01185225
_cell_angle_gamma   91.18804011
_symmetry_Int_Tables_number   1
_chemical_formula_structural   Li16(CoO4)3
_chemical_formula_sum   'Li32 Co6 O24'
_cell_volume   600.26177838
_cell_formula_units_Z   2
loop_
 _symmetry_equiv_pos_site_id
 _symmetry_equiv_pos_as_xyz
  1  'x, y, z'
loop_
 _atom_site_type_symbol
 _atom_site_label
 _atom_site_symmetry_multiplicity
 _atom_site_fract_x
 _atom_site_fract_y
 _atom_site_fract_z
 _atom_site_occupancy
  Li  Li1  1  0.022229  0.473840  0.925176  1
  Li  Li2  1  0.025085  0.476949  0.239060  1
  Li  Li3  1  0.030535  0.467377  0.581167  1
  Li  Li4  1  0.044128  0.038784  0.915058  1
  Li  Li5  1  0.045714  0.037215  0.259143  1
  Li  Li6  1  0.226262  0.722505  0.104022  1
  Li  Li7  1  0.227390  0.768680  0.601309  1
  Li  Li8  1  0.246654  0.742690  0.437744  1
  Li  Li9  1  0.252299  0.744039  0.769887  1
  Li  Li10  1  0.275413  0.771853  0.937225  1
  Li  Li11  1  0.275872  0.772779  0.270983  1
  Li  Li12  1  0.462465  0.455332  0.246011  1
  Li  Li13  1  0.463162  0.453387  0.910892  1
  Li  Li14  1  0.464384  0.029029  0.588167  1
  Li  Li15  1  0.473572  0.475869  0.583416  1
  Li  Li16  1  0.521554  0.979651  0.082252  1
  Li  Li17  1  0.523180  0.967950  0.409726  1
  Li  Li18  1  0.524463  0.979040  0.763053  1
  Li  Li19  1  0.536278  0.538073  0.416940  1
  Li  Li20  1  0.538264  0.531738  0.745941  1
  Li  Li21  1  0.544721  0.535748  0.076716  1
  Li  Li22  1  0.728908  0.221868  0.228676  1
  Li  Li23  1  0.729296  0.225030  0.895908  1
  Li  Li24  1  0.748122  0.250675  0.730989  1
  Li  Li25  1  0.748221  0.250138  0.395642  1
  Li  Li26  1  0.768749  0.229035  0.567284  1
  Li  Li27  1  0.778690  0.273032  0.061898  1
  Li  Li28  1  0.964454  0.956057  0.089210  1
  Li  Li29  1  0.965648  0.534264  0.410111  1
  Li  Li30  1  0.966836  0.527342  0.751625  1
  Li  Li31  1  0.971698  0.967699  0.433804  1
  Li  Li32  1  0.972838  0.974179  0.735744  1
  Co  Co33  1  0.245468  0.254079  0.082761  1
  Co  Co34  1  0.247712  0.253114  0.417303  1
  Co  Co35  1  0.249444  0.251530  0.749425  1
  Co  Co36  1  0.743407  0.757382  0.248564  1
  Co  Co37  1  0.745749  0.755355  0.917403  1
  Co  Co38  1  0.756161  0.757643  0.584337  1
  O  O39  1  0.006639  0.727971  0.509444  1
  O  O40  1  0.008935  0.763327  0.194467  1
  O  O41  1  0.009151  0.753258  0.853040  1
  O  O42  1  0.234896  0.988011  0.027944  1
  O  O43  1  0.241055  0.989993  0.359822  1
  O  O44  1  0.246877  0.514826  0.680074  1
  O  O45  1  0.253833  0.507531  0.343473  1
  O  O46  1  0.258661  0.983005  0.691707  1
  O  O47  1  0.261883  0.499980  0.012552  1
  O  O48  1  0.487514  0.752594  0.511477  1
  O  O49  1  0.499619  0.734985  0.847938  1
  O  O50  1  0.501677  0.735637  0.177852  1
  O  O51  1  0.510169  0.253797  0.482352  1
  O  O52  1  0.511687  0.264569  0.811589  1
  O  O53  1  0.511834  0.264356  0.138434  1
  O  O54  1  0.730006  0.007942  0.658814  1
  O  O55  1  0.738946  0.493015  0.974291  1
  O  O56  1  0.742675  0.490789  0.311502  1
  O  O57  1  0.754741  0.484763  0.651694  1
  O  O58  1  0.762481  0.999064  0.322348  1
  O  O59  1  0.766229  0.999047  0.988976  1
  O  O60  1  0.986994  0.265709  0.475029  1
  O  O61  1  0.987068  0.253035  0.821584  1
  O  O62  1  0.999248  0.235988  0.155691  1
