# generated using pymatgen
data_Li17(CoO4)3
_symmetry_space_group_name_H-M   P1
_cell_length_a   6.58970804
_cell_length_b   8.08293644
_cell_length_c   11.46712217
_cell_angle_alpha   89.73630834
_cell_angle_beta   89.92285422
_cell_angle_gamma   89.95122517
_symmetry_Int_Tables_number   1
_chemical_formula_structural   Li17(CoO4)3
_chemical_formula_sum   'Li34 Co6 O24'
_cell_volume   610.77974809
_cell_formula_units_Z   2
loop_
 _symmetry_equiv_pos_site_id
 _symmetry_equiv_pos_as_xyz
  1  'x, y, z'
loop_
 _atom_site_type_symbol
 _atom_site_label
 _atom_site_symmetry_multiplicity
 _atom_site_fract_x
 _atom_site_fract_y
 _atom_site_fract_z
 _atom_site_occupancy
  Li  Li1  1  0.025824  0.236629  0.267841  1
  Li  Li2  1  0.029732  0.895453  0.920563  1
  Li  Li3  1  0.030998  0.939452  0.407697  1
  Li  Li4  1  0.032634  0.281671  0.740131  1
  Li  Li5  1  0.035741  0.602659  0.071686  1
  Li  Li6  1  0.226127  0.718803  0.492825  1
  Li  Li7  1  0.244865  0.394450  0.150678  1
  Li  Li8  1  0.246629  0.900232  0.648421  1
  Li  Li9  1  0.250367  0.069010  0.812147  1
  Li  Li10  1  0.250618  0.566490  0.310778  1
  Li  Li11  1  0.269421  0.216913  0.987518  1
  Li  Li12  1  0.465709  0.927534  0.409565  1
  Li  Li13  1  0.467470  0.560963  0.592743  1
  Li  Li14  1  0.467930  0.592283  0.072681  1
  Li  Li15  1  0.472321  0.915069  0.931947  1
  Li  Li16  1  0.479344  0.217142  0.244746  1
  Li  Li17  1  0.481676  0.279624  0.736716  1
  Li  Li18  1  0.528706  0.771086  0.742876  1
  Li  Li19  1  0.532929  0.433618  0.396831  1
  Li  Li20  1  0.536953  0.388154  0.927132  1
  Li  Li21  1  0.538807  0.719835  0.262087  1
  Li  Li22  1  0.539522  0.056345  0.596796  1
  Li  Li23  1  0.726128  0.948154  0.181402  1
  Li  Li24  1  0.744391  0.273236  0.518369  1
  Li  Li25  1  0.747597  0.765691  0.018080  1
  Li  Li26  1  0.750449  0.098539  0.355341  1
  Li  Li27  1  0.750756  0.599501  0.853182  1
  Li  Li28  1  0.771364  0.452660  0.675591  1
  Li  Li29  1  0.953862  0.110563  0.072619  1
  Li  Li30  1  0.959966  0.732269  0.259688  1
  Li  Li31  1  0.964607  0.068307  0.595902  1
  Li  Li32  1  0.969285  0.455020  0.419311  1
  Li  Li33  1  0.973514  0.750646  0.729164  1
  Li  Li34  1  0.976183  0.391955  0.929633  1
  Co  Co35  1  0.252770  0.918843  0.164297  1
  Co  Co36  1  0.253353  0.253464  0.499541  1
  Co  Co37  1  0.253452  0.581812  0.835084  1
  Co  Co38  1  0.752965  0.085174  0.831183  1
  Co  Co39  1  0.752973  0.746138  0.503130  1
  Co  Co40  1  0.753963  0.415564  0.167618  1
  O  O41  1  0.007015  0.838911  0.566185  1
  O  O42  1  0.012822  0.492086  0.240247  1
  O  O43  1  0.017943  0.150989  0.904770  1
  O  O44  1  0.231305  0.149379  0.157463  1
  O  O45  1  0.246062  0.814508  0.318870  1
  O  O46  1  0.252086  0.153565  0.648882  1
  O  O47  1  0.252394  0.831481  0.814706  1
  O  O48  1  0.253830  0.470955  0.994961  1
  O  O49  1  0.262117  0.480466  0.472303  1
  O  O50  1  0.479976  0.818551  0.569427  1
  O  O51  1  0.483292  0.481734  0.233854  1
  O  O52  1  0.485316  0.157222  0.887408  1
  O  O53  1  0.494447  0.832846  0.103220  1
  O  O54  1  0.502567  0.175561  0.430989  1
  O  O55  1  0.518140  0.517066  0.760397  1
  O  O56  1  0.728741  0.504142  0.508638  1
  O  O57  1  0.745215  0.856831  0.341093  1
  O  O58  1  0.750474  0.838191  0.853699  1
  O  O59  1  0.751780  0.522580  0.011689  1
  O  O60  1  0.754291  0.192780  0.671708  1
  O  O61  1  0.763852  0.175817  0.197723  1
  O  O62  1  0.987390  0.510671  0.776449  1
  O  O63  1  0.993503  0.850190  0.098646  1
  O  O64  1  0.995699  0.186222  0.436284  1
