# generated using pymatgen
data_Li19(CoO4)4
_symmetry_space_group_name_H-M   Pm
_cell_length_a   7.18369659
_cell_length_b   6.72528806
_cell_length_c   7.86916242
_cell_angle_alpha   90.00000000
_cell_angle_beta   90.14003502
_cell_angle_gamma   90.00000000
_symmetry_Int_Tables_number   6
_chemical_formula_structural   Li19(CoO4)4
_chemical_formula_sum   'Li19 Co4 O16'
_cell_volume   380.17721421
_cell_formula_units_Z   1
loop_
 _symmetry_equiv_pos_site_id
 _symmetry_equiv_pos_as_xyz
  1  'x, y, z'
  2  'x, -y, z'
loop_
 _atom_site_type_symbol
 _atom_site_label
 _atom_site_symmetry_multiplicity
 _atom_site_fract_x
 _atom_site_fract_y
 _atom_site_fract_z
 _atom_site_occupancy
  Li  Li1  2  0.001792  0.260884  0.842079  1
  Li  Li2  2  0.002418  0.246131  0.487745  1
  Li  Li3  2  0.484721  0.245995  0.341505  1
  Li  Li4  2  0.497760  0.237218  0.019675  1
  Li  Li5  2  0.537306  0.253663  0.659964  1
  Li  Li6  2  0.978476  0.257165  0.163752  1
  Li  Li7  1  0.243109  0.500000  0.223504  1
  Li  Li8  1  0.245619  0.500000  0.915521  1
  Li  Li9  1  0.256466  0.000000  0.418317  1
  Li  Li10  1  0.259742  0.000000  0.737209  1
  Li  Li11  1  0.735517  0.500000  0.061048  1
  Li  Li12  1  0.742563  0.000000  0.270229  1
  Li  Li13  1  0.752671  0.000000  0.585940  1
  Co  Co14  1  0.223619  0.000000  0.109349  1
  Co  Co15  1  0.270319  0.500000  0.602287  1
  Co  Co16  1  0.736557  0.500000  0.382492  1
  Co  Co17  1  0.763802  0.000000  0.896794  1
  O  O18  2  0.210278  0.253705  0.023564  1
  O  O19  2  0.287836  0.250732  0.523833  1
  O  O20  2  0.718170  0.243875  0.466413  1
  O  O21  2  0.780595  0.243221  0.997788  1
  O  O22  1  0.030920  0.000000  0.282093  1
  O  O23  1  0.059697  0.500000  0.711892  1
  O  O24  1  0.447559  0.500000  0.757563  1
  O  O25  1  0.462226  0.000000  0.216526  1
  O  O26  1  0.524331  0.500000  0.222567  1
  O  O27  1  0.533888  0.000000  0.775838  1
  O  O28  1  0.971743  0.000000  0.732749  1
  O  O29  1  0.981553  0.500000  0.294827  1
