# generated using pymatgen
data_Li20Co21O40
_symmetry_space_group_name_H-M   P1
_cell_length_a   8.15475232
_cell_length_b   9.96820474
_cell_length_c   10.01853216
_cell_angle_alpha   80.51444269
_cell_angle_beta   66.00566265
_cell_angle_gamma   65.89897933
_symmetry_Int_Tables_number   1
_chemical_formula_structural   Li20Co21O40
_chemical_formula_sum   'Li20 Co21 O40'
_cell_volume   679.15520283
_cell_formula_units_Z   1
loop_
 _symmetry_equiv_pos_site_id
 _symmetry_equiv_pos_as_xyz
  1  'x, y, z'
loop_
 _atom_site_type_symbol
 _atom_site_label
 _atom_site_symmetry_multiplicity
 _atom_site_fract_x
 _atom_site_fract_y
 _atom_site_fract_z
 _atom_site_occupancy
  Li  Li1  1  0.094851  0.099243  0.193204  1
  Li  Li2  1  0.191431  0.146249  0.379849  1
  Li  Li3  1  0.194892  0.197821  0.907921  1
  Li  Li4  1  0.198868  0.698968  0.898522  1
  Li  Li5  1  0.315015  0.283802  0.657691  1
  Li  Li6  1  0.404818  0.405522  0.803046  1
  Li  Li7  1  0.407781  0.890355  0.295954  1
  Li  Li8  1  0.459508  0.419028  0.248650  1
  Li  Li9  1  0.502076  0.503099  0.990649  1
  Li  Li10  1  0.591800  0.600360  0.705935  1
  Li  Li11  1  0.605830  0.606835  0.198001  1
  Li  Li12  1  0.610433  0.094918  0.700665  1
  Li  Li13  1  0.692887  0.703726  0.395515  1
  Li  Li14  1  0.797699  0.808685  0.603983  1
  Li  Li15  1  0.802691  0.800602  0.096962  1
  Li  Li16  1  0.813657  0.295174  0.092173  1
  Li  Li17  1  0.902225  0.898669  0.799938  1
  Li  Li18  1  0.920134  0.553777  0.518948  1
  Li  Li19  1  0.992804  0.996170  0.505410  1
  Li  Li20  1  0.999124  0.998013  0.997708  1
  Co  Co21  1  0.098541  0.601489  0.702450  1
  Co  Co22  1  0.099995  0.602089  0.199057  1
  Co  Co23  1  0.102421  0.096768  0.701632  1
  Co  Co24  1  0.200929  0.702827  0.396322  1
  Co  Co25  1  0.225911  0.349209  0.449981  1
  Co  Co26  1  0.299342  0.801808  0.098822  1
  Co  Co27  1  0.301466  0.798723  0.598759  1
  Co  Co28  1  0.301923  0.299055  0.097472  1
  Co  Co29  1  0.400791  0.898403  0.800014  1
  Co  Co30  1  0.500506  0.998437  0.499904  1
  Co  Co31  1  0.500970  0.999307  0.998146  1
  Co  Co32  1  0.502745  0.500169  0.496709  1
  Co  Co33  1  0.601491  0.098539  0.196948  1
  Co  Co34  1  0.697500  0.700313  0.902726  1
  Co  Co35  1  0.700338  0.200290  0.397574  1
  Co  Co36  1  0.702025  0.198843  0.899322  1
  Co  Co37  1  0.798617  0.300385  0.600045  1
  Co  Co38  1  0.898235  0.400680  0.804632  1
  Co  Co39  1  0.899673  0.901404  0.298748  1
  Co  Co40  1  0.900212  0.399810  0.298249  1
  Co  Co41  1  0.997528  0.501023  0.003004  1
  O  O42  1  0.049622  0.293452  0.619067  1
  O  O43  1  0.054175  0.311316  0.104461  1
  O  O44  1  0.056048  0.796429  0.113301  1
  O  O45  1  0.070199  0.794813  0.586929  1
  O  O46  1  0.129051  0.404885  0.816777  1
  O  O47  1  0.145270  0.403783  0.283911  1
  O  O48  1  0.147537  0.889633  0.293930  1
  O  O49  1  0.167368  0.901913  0.786363  1
  O  O50  1  0.234286  0.495970  0.014418  1
  O  O51  1  0.257899  0.994084  0.512779  1
  O  O52  1  0.263222  0.512098  0.488228  1
  O  O53  1  0.269276  0.987610  0.994407  1
  O  O54  1  0.331797  0.615628  0.200214  1
  O  O55  1  0.351617  0.082949  0.695975  1
  O  O56  1  0.358003  0.603247  0.683298  1
  O  O57  1  0.367652  0.102607  0.183304  1
  O  O58  1  0.435054  0.697370  0.410325  1
  O  O59  1  0.448511  0.714258  0.905801  1
  O  O60  1  0.457478  0.195511  0.911611  1
  O  O61  1  0.472772  0.183340  0.391373  1
  O  O62  1  0.531971  0.813462  0.603400  1
  O  O63  1  0.540716  0.806074  0.087903  1
  O  O64  1  0.549383  0.285945  0.094130  1
  O  O65  1  0.554256  0.304577  0.582142  1
  O  O66  1  0.634083  0.895222  0.813210  1
  O  O67  1  0.651992  0.912632  0.303332  1
  O  O68  1  0.661441  0.395373  0.308751  1
  O  O69  1  0.664917  0.389918  0.806360  1
  O  O70  1  0.730576  0.012068  0.004153  1
  O  O71  1  0.742365  0.004981  0.485654  1
  O  O72  1  0.744577  0.497889  0.486796  1
  O  O73  1  0.762354  0.504486  0.990720  1
  O  O74  1  0.834410  0.095099  0.210159  1
  O  O75  1  0.839336  0.597207  0.718137  1
  O  O76  1  0.857658  0.102315  0.710208  1
  O  O77  1  0.869633  0.588000  0.197414  1
  O  O78  1  0.935154  0.691751  0.910734  1
  O  O79  1  0.935473  0.207031  0.391501  1
  O  O80  1  0.945070  0.201837  0.887892  1
  O  O81  1  0.965070  0.707389  0.385122  1
