# generated using pymatgen
data_Li21(CoO4)4
_symmetry_space_group_name_H-M   Pc
_cell_length_a   9.08905265
_cell_length_b   9.37424577
_cell_length_c   9.43185011
_cell_angle_alpha   90.00000000
_cell_angle_beta   90.19366594
_cell_angle_gamma   90.00000000
_symmetry_Int_Tables_number   7
_chemical_formula_structural   Li21(CoO4)4
_chemical_formula_sum   'Li42 Co8 O32'
_cell_volume   803.61746021
_cell_formula_units_Z   2
loop_
 _symmetry_equiv_pos_site_id
 _symmetry_equiv_pos_as_xyz
  1  'x, y, z'
  2  'x, -y, z+1/2'
loop_
 _atom_site_type_symbol
 _atom_site_label
 _atom_site_symmetry_multiplicity
 _atom_site_fract_x
 _atom_site_fract_y
 _atom_site_fract_z
 _atom_site_occupancy
  Li  Li1  2  0.111860  0.114065  0.864058  1
  Li  Li2  2  0.117263  0.108784  0.135057  1
  Li  Li3  2  0.120721  0.358188  0.659854  1
  Li  Li4  2  0.152580  0.372129  0.101816  1
  Li  Li5  2  0.327402  0.136891  0.614881  1
  Li  Li6  2  0.344336  0.381887  0.892567  1
  Li  Li7  2  0.351551  0.145560  0.377729  1
  Li  Li8  2  0.366911  0.408613  0.619765  1
  Li  Li9  2  0.387504  0.133032  0.139032  1
  Li  Li10  2  0.395701  0.380606  0.352612  1
  Li  Li11  2  0.606016  0.114040  0.648976  1
  Li  Li12  2  0.613642  0.354946  0.614960  1
  Li  Li13  2  0.619573  0.367029  0.861570  1
  Li  Li14  2  0.628865  0.103078  0.379563  1
  Li  Li15  2  0.662567  0.129319  0.113249  1
  Li  Li16  2  0.668374  0.368753  0.374706  1
  Li  Li17  2  0.838739  0.135107  0.895089  1
  Li  Li18  2  0.865064  0.371364  0.607457  1
  Li  Li19  2  0.880267  0.372006  0.137263  1
  Li  Li20  2  0.883901  0.395045  0.874131  1
  Li  Li21  2  0.898827  0.134979  0.347859  1
  Co  Co22  2  0.111362  0.380481  0.378527  1
  Co  Co23  2  0.393516  0.118809  0.875442  1
  Co  Co24  2  0.602412  0.381525  0.121052  1
  Co  Co25  2  0.889151  0.103340  0.624285  1
  O  O26  2  0.009904  0.489229  0.511617  1
  O  O27  2  0.025993  0.266529  0.243896  1
  O  O28  2  0.241914  0.495689  0.257768  1
  O  O29  2  0.255413  0.285078  0.495573  1
  O  O30  2  0.258654  0.218495  0.994321  1
  O  O31  2  0.270245  0.002589  0.757380  1
  O  O32  2  0.472376  0.251991  0.746295  1
  O  O33  2  0.482976  0.005071  0.505060  1
  O  O34  2  0.508940  0.489759  0.484844  1
  O  O35  2  0.521107  0.240217  0.257333  1
  O  O36  2  0.738608  0.486420  0.733521  1
  O  O37  2  0.745964  0.279561  0.000906  1
  O  O38  2  0.746537  0.222932  0.513370  1
  O  O39  2  0.755105  0.000451  0.746689  1
  O  O40  2  0.970742  0.236711  0.746690  1
  O  O41  2  0.979807  0.007721  0.995523  1
