# generated using pymatgen
data_Li3(CoO2)4
_symmetry_space_group_name_H-M   P1
_cell_length_a   5.68327256
_cell_length_b   5.74072457
_cell_length_c   5.80301066
_cell_angle_alpha   118.11487385
_cell_angle_beta   92.08756012
_cell_angle_gamma   118.13618039
_symmetry_Int_Tables_number   1
_chemical_formula_structural   Li3(CoO2)4
_chemical_formula_sum   'Li3 Co4 O8'
_cell_volume   138.87534864
_cell_formula_units_Z   1
loop_
 _symmetry_equiv_pos_site_id
 _symmetry_equiv_pos_as_xyz
  1  'x, y, z'
loop_
 _atom_site_type_symbol
 _atom_site_label
 _atom_site_symmetry_multiplicity
 _atom_site_fract_x
 _atom_site_fract_y
 _atom_site_fract_z
 _atom_site_occupancy
  Li  Li1  1  0.001822  0.004202  0.501389  1
  Li  Li2  1  0.008595  0.517916  0.508987  1
  Li  Li3  1  0.502147  0.004013  0.002616  1
  Co  Co4  1  0.000763  0.002887  0.002261  1
  Co  Co5  1  0.000920  0.501817  0.000941  1
  Co  Co6  1  0.500444  0.501075  0.000524  1
  Co  Co7  1  0.502423  0.003248  0.500584  1
  O  O8  1  0.216466  0.948231  0.213892  1
  O  O9  1  0.239572  0.502568  0.788731  1
  O  O10  1  0.252917  0.494713  0.223813  1
  O  O11  1  0.273254  0.049978  0.778198  1
  O  O12  1  0.726429  0.949807  0.221776  1
  O  O13  1  0.748752  0.508766  0.778053  1
  O  O14  1  0.761991  0.500827  0.213011  1
  O  O15  1  0.785152  0.055424  0.788138  1
