# generated using pymatgen
data_Li3Co13O16
_symmetry_space_group_name_H-M   P-1
_cell_length_a   5.16086881
_cell_length_b   5.16629281
_cell_length_c   11.58274376
_cell_angle_alpha   85.86105176
_cell_angle_beta   81.52087254
_cell_angle_gamma   80.71439251
_symmetry_Int_Tables_number   2
_chemical_formula_structural   Li3Co13O16
_chemical_formula_sum   'Li3 Co13 O16'
_cell_volume   301.07693645
_cell_formula_units_Z   1
loop_
 _symmetry_equiv_pos_site_id
 _symmetry_equiv_pos_as_xyz
  1  'x, y, z'
  2  '-x, -y, -z'
loop_
 _atom_site_type_symbol
 _atom_site_label
 _atom_site_symmetry_multiplicity
 _atom_site_fract_x
 _atom_site_fract_y
 _atom_site_fract_z
 _atom_site_occupancy
  Li  Li1  2  0.188958  0.749634  0.312246  1
  Li  Li2  1  0.000000  0.500000  0.000000  1
  Co  Co3  2  0.065490  0.248773  0.436592  1
  Co  Co4  2  0.118960  0.003764  0.876065  1
  Co  Co5  2  0.246632  0.495578  0.751083  1
  Co  Co6  2  0.309080  0.252262  0.187733  1
  Co  Co7  2  0.374074  0.004074  0.626293  1
  Co  Co8  2  0.433997  0.745963  0.062624  1
  Co  Co9  1  0.500000  0.500000  0.500000  1
  O  O10  2  0.034127  0.866339  0.720271  1
  O  O11  2  0.093964  0.624791  0.155663  1
  O  O12  2  0.159778  0.378467  0.592535  1
  O  O13  2  0.225982  0.119171  0.030647  1
  O  O14  2  0.280318  0.877190  0.472648  1
  O  O15  2  0.348278  0.631360  0.904633  1
  O  O16  2  0.413285  0.365958  0.342831  1
  O  O17  2  0.464208  0.121299  0.784094  1
