# generated using pymatgen
data_Li3Co11O14
_symmetry_space_group_name_H-M   C2/m
_cell_length_a   5.12547691
_cell_length_b   20.92601310
_cell_length_c   5.13299822
_cell_angle_alpha   90.00000000
_cell_angle_beta   108.76902679
_cell_angle_gamma   90.00000000
_symmetry_Int_Tables_number   12
_chemical_formula_structural   Li3Co11O14
_chemical_formula_sum   'Li6 Co22 O28'
_cell_volume   521.26772989
_cell_formula_units_Z   2
loop_
 _symmetry_equiv_pos_site_id
 _symmetry_equiv_pos_as_xyz
  1  'x, y, z'
  2  '-x, -y, -z'
  3  '-x, y, -z'
  4  'x, -y, z'
  5  'x+1/2, y+1/2, z'
  6  '-x+1/2, -y+1/2, -z'
  7  '-x+1/2, y+1/2, -z'
  8  'x+1/2, -y+1/2, z'
loop_
 _atom_site_type_symbol
 _atom_site_label
 _atom_site_symmetry_multiplicity
 _atom_site_fract_x
 _atom_site_fract_y
 _atom_site_fract_z
 _atom_site_occupancy
  Li  Li1  4  0.000000  0.141504  0.500000  1
  Li  Li2  2  0.000000  0.500000  0.000000  1
  Co  Co3  4  0.000000  0.070825  0.000000  1
  Co  Co4  4  0.000000  0.213894  0.000000  1
  Co  Co5  4  0.000000  0.285349  0.500000  1
  Co  Co6  4  0.000000  0.360702  0.000000  1
  Co  Co7  4  0.000000  0.428593  0.500000  1
  Co  Co8  2  0.000000  0.000000  0.500000  1
  O  O9  8  0.237105  0.067393  0.741660  1
  O  O10  8  0.243978  0.285171  0.251948  1
  O  O11  8  0.244677  0.358257  0.751170  1
  O  O12  4  0.232420  0.000000  0.269197  1
