# generated using pymatgen
data_Li3Co13O16
_symmetry_space_group_name_H-M   P-1
_cell_length_a   5.15519873
_cell_length_b   5.98102961
_cell_length_c   9.90461412
_cell_angle_alpha   81.26469629
_cell_angle_beta   85.38543755
_cell_angle_gamma   89.84604765
_symmetry_Int_Tables_number   2
_chemical_formula_structural   Li3Co13O16
_chemical_formula_sum   'Li3 Co13 O16'
_cell_volume   300.85794555
_cell_formula_units_Z   1
loop_
 _symmetry_equiv_pos_site_id
 _symmetry_equiv_pos_as_xyz
  1  'x, y, z'
  2  '-x, -y, -z'
loop_
 _atom_site_type_symbol
 _atom_site_label
 _atom_site_symmetry_multiplicity
 _atom_site_fract_x
 _atom_site_fract_y
 _atom_site_fract_z
 _atom_site_occupancy
  Li  Li1  2  0.373164  0.061644  0.252770  1
  Li  Li2  1  0.000000  0.500000  0.500000  1
  Co  Co3  2  0.120141  0.690217  0.746590  1
  Co  Co4  2  0.120777  0.185915  0.746773  1
  Co  Co5  2  0.253462  0.372196  0.000943  1
  Co  Co6  2  0.256249  0.878063  0.998952  1
  Co  Co7  2  0.369737  0.559583  0.254261  1
  Co  Co8  2  0.499572  0.749681  0.499618  1
  Co  Co9  1  0.000000  0.000000  0.500000  1
  O  O10  2  0.056119  0.094882  0.123769  1
  O  O11  2  0.065848  0.592479  0.129898  1
  O  O12  2  0.182706  0.264190  0.383681  1
  O  O13  2  0.182809  0.794006  0.383886  1
  O  O14  2  0.288633  0.970697  0.616164  1
  O  O15  2  0.320972  0.467349  0.626907  1
  O  O16  2  0.429814  0.652724  0.873945  1
  O  O17  2  0.432952  0.161143  0.873563  1
