# generated using pymatgen
data_Li3Co2O5
_symmetry_space_group_name_H-M   C2/m
_cell_length_a   12.32719032
_cell_length_b   2.99357080
_cell_length_c   9.74429698
_cell_angle_alpha   90.00000000
_cell_angle_beta   98.88779617
_cell_angle_gamma   90.00000000
_symmetry_Int_Tables_number   12
_chemical_formula_structural   Li3Co2O5
_chemical_formula_sum   'Li12 Co8 O20'
_cell_volume   355.26949939
_cell_formula_units_Z   4
loop_
 _symmetry_equiv_pos_site_id
 _symmetry_equiv_pos_as_xyz
  1  'x, y, z'
  2  '-x, -y, -z'
  3  '-x, y, -z'
  4  'x, -y, z'
  5  'x+1/2, y+1/2, z'
  6  '-x+1/2, -y+1/2, -z'
  7  '-x+1/2, y+1/2, -z'
  8  'x+1/2, -y+1/2, z'
loop_
 _atom_site_type_symbol
 _atom_site_label
 _atom_site_symmetry_multiplicity
 _atom_site_fract_x
 _atom_site_fract_y
 _atom_site_fract_z
 _atom_site_occupancy
  Li  Li1  4  0.096121  0.500000  0.800588  1
  Li  Li2  4  0.198410  0.000000  0.597276  1
  Li  Li3  2  0.000000  0.000000  0.000000  1
  Li  Li4  2  0.000000  0.500000  0.500000  1
  Co  Co5  4  0.097496  0.000000  0.309272  1
  Co  Co6  4  0.199231  0.500000  0.100953  1
  O  O7  4  0.036577  0.000000  0.657332  1
  O  O8  4  0.058673  0.500000  0.154501  1
  O  O9  4  0.145922  0.500000  0.436550  1
  O  O10  4  0.157925  0.000000  0.953248  1
  O  O11  4  0.238005  0.000000  0.247716  1
