# generated using pymatgen
data_Li3Co2O5
_symmetry_space_group_name_H-M   C2/m
_cell_length_a   5.05225233
_cell_length_b   2.88028534
_cell_length_c   24.82067260
_cell_angle_alpha   90.00000000
_cell_angle_beta   93.72293959
_cell_angle_gamma   90.00000000
_symmetry_Int_Tables_number   12
_chemical_formula_structural   Li3Co2O5
_chemical_formula_sum   'Li12 Co8 O20'
_cell_volume   360.42643230
_cell_formula_units_Z   4
loop_
 _symmetry_equiv_pos_site_id
 _symmetry_equiv_pos_as_xyz
  1  'x, y, z'
  2  '-x, -y, -z'
  3  '-x, y, -z'
  4  'x, -y, z'
  5  'x+1/2, y+1/2, z'
  6  '-x+1/2, -y+1/2, -z'
  7  '-x+1/2, y+1/2, -z'
  8  'x+1/2, -y+1/2, z'
loop_
 _atom_site_type_symbol
 _atom_site_label
 _atom_site_symmetry_multiplicity
 _atom_site_fract_x
 _atom_site_fract_y
 _atom_site_fract_z
 _atom_site_occupancy
  Li  Li1  4  0.095487  0.000000  0.301533  1
  Li  Li2  4  0.193107  0.500000  0.098555  1
  Li  Li3  2  0.000000  0.000000  0.000000  1
  Li  Li4  2  0.000000  0.500000  0.500000  1
  Co  Co5  4  0.097594  0.500000  0.797554  1
  Co  Co6  4  0.202043  0.000000  0.600514  1
  O  O7  4  0.053892  0.500000  0.647728  1
  O  O8  4  0.067777  0.000000  0.161126  1
  O  O9  4  0.148439  0.000000  0.445819  1
  O  O10  4  0.151288  0.500000  0.946473  1
  O  O11  4  0.236598  0.500000  0.245336  1
