# generated using pymatgen
data_Li3Co2O5
_symmetry_space_group_name_H-M   C2/m
_cell_length_a   20.56142547
_cell_length_b   2.92182841
_cell_length_c   5.94769958
_cell_angle_alpha   90.00000000
_cell_angle_beta   97.45913921
_cell_angle_gamma   90.00000000
_symmetry_Int_Tables_number   12
_chemical_formula_structural   Li3Co2O5
_chemical_formula_sum   'Li12 Co8 O20'
_cell_volume   354.29594496
_cell_formula_units_Z   4
loop_
 _symmetry_equiv_pos_site_id
 _symmetry_equiv_pos_as_xyz
  1  'x, y, z'
  2  '-x, -y, -z'
  3  '-x, y, -z'
  4  'x, -y, z'
  5  'x+1/2, y+1/2, z'
  6  '-x+1/2, -y+1/2, -z'
  7  '-x+1/2, y+1/2, -z'
  8  'x+1/2, -y+1/2, z'
loop_
 _atom_site_type_symbol
 _atom_site_label
 _atom_site_symmetry_multiplicity
 _atom_site_fract_x
 _atom_site_fract_y
 _atom_site_fract_z
 _atom_site_occupancy
  Li  Li1  4  0.097860  0.000000  0.791946  1
  Li  Li2  4  0.197322  0.500000  0.597745  1
  Li  Li3  2  0.000000  0.500000  0.000000  1
  Li  Li4  2  0.000000  0.500000  0.500000  1
  Co  Co5  4  0.094260  0.000000  0.303269  1
  Co  Co6  4  0.197978  0.500000  0.094388  1
  O  O7  4  0.009414  0.000000  0.254197  1
  O  O8  4  0.099706  0.500000  0.529342  1
  O  O9  4  0.100259  0.500000  0.065356  1
  O  O10  4  0.191012  0.000000  0.331553  1
  O  O11  4  0.201969  0.000000  0.858893  1
