# generated using pymatgen
data_Li3Mn8O16
_symmetry_space_group_name_H-M   Pmmn
_cell_length_a   5.97233158
_cell_length_b   12.06236880
_cell_length_c   8.19738433
_cell_angle_alpha   90.00000000
_cell_angle_beta   90.00000000
_cell_angle_gamma   90.00000000
_symmetry_Int_Tables_number   59
_chemical_formula_structural   Li3Mn8O16
_chemical_formula_sum   'Li6 Mn16 O32'
_cell_volume   590.54338803
_cell_formula_units_Z   2
loop_
 _symmetry_equiv_pos_site_id
 _symmetry_equiv_pos_as_xyz
  1  'x, y, z'
  2  '-x, -y, z'
  3  'x+1/2, -y+1/2, -z'
  4  '-x+1/2, y+1/2, -z'
  5  '-x+1/2, -y+1/2, -z'
  6  'x+1/2, y+1/2, -z'
  7  '-x, y, z'
  8  'x, -y, z'
loop_
 _atom_site_type_symbol
 _atom_site_label
 _atom_site_symmetry_multiplicity
 _atom_site_fract_x
 _atom_site_fract_y
 _atom_site_fract_z
 _atom_site_occupancy
  Li  Li1  4  0.000000  0.243420  0.628237  1
  Li  Li2  2  0.000000  0.500000  0.870333  1
  Mn  Mn3  4  0.000000  0.125841  0.252278  1
  Mn  Mn4  4  0.000000  0.378180  0.248397  1
  Mn  Mn5  4  0.248313  0.500000  0.500734  1
  Mn  Mn6  4  0.250000  0.250000  0.000000  1
  O  O7  8  0.225854  0.261983  0.235227  1
  O  O8  4  0.000000  0.110700  0.487125  1
  O  O9  4  0.000000  0.145772  0.018535  1
  O  O10  4  0.000000  0.359521  0.006664  1
  O  O11  4  0.000000  0.386055  0.483859  1
  O  O12  4  0.213235  0.500000  0.261858  1
  O  O13  4  0.236804  0.000000  0.267916  1
