# generated using pymatgen
data_Li3Mn28O56
_symmetry_space_group_name_H-M   C2
_cell_length_a   18.57310202
_cell_length_b   8.30934731
_cell_length_c   13.12761542
_cell_angle_alpha   90.00000000
_cell_angle_beta   98.01476316
_cell_angle_gamma   90.00000000
_symmetry_Int_Tables_number   5
_chemical_formula_structural   Li3Mn28O56
_chemical_formula_sum   'Li6 Mn56 O112'
_cell_volume   2006.20004230
_cell_formula_units_Z   2
loop_
 _symmetry_equiv_pos_site_id
 _symmetry_equiv_pos_as_xyz
  1  'x, y, z'
  2  '-x, y, -z'
  3  'x+1/2, y+1/2, z'
  4  '-x+1/2, y+1/2, -z'
loop_
 _atom_site_type_symbol
 _atom_site_label
 _atom_site_symmetry_multiplicity
 _atom_site_fract_x
 _atom_site_fract_y
 _atom_site_fract_z
 _atom_site_occupancy
  Li  Li1  4  0.214318  0.553602  0.642998  1
  Li  Li2  2  0.000000  0.802763  0.000000  1
  Mn  Mn3  4  0.000253  0.928375  0.748906  1
  Mn  Mn4  4  0.034887  0.677883  0.606703  1
  Mn  Mn5  4  0.035639  0.180238  0.107441  1
  Mn  Mn6  4  0.070688  0.427616  0.464146  1
  Mn  Mn7  4  0.071176  0.426538  0.963673  1
  Mn  Mn8  4  0.106289  0.178565  0.321158  1
  Mn  Mn9  4  0.106669  0.677824  0.821318  1
  Mn  Mn10  4  0.142394  0.930355  0.678745  1
  Mn  Mn11  4  0.143125  0.929354  0.178592  1
  Mn  Mn12  4  0.178058  0.177441  0.536624  1
  Mn  Mn13  4  0.179706  0.678564  0.036397  1
  Mn  Mn14  4  0.213393  0.428625  0.893176  1
  Mn  Mn15  4  0.214226  0.429822  0.392043  1
  Mn  Mn16  4  0.249574  0.178079  0.749855  1
  O  O17  4  0.008525  0.694368  0.745392  1
  O  O18  4  0.008826  0.163246  0.246095  1
  O  O19  4  0.031226  0.443344  0.594243  1
  O  O20  4  0.031427  0.413520  0.094085  1
  O  O21  4  0.039256  0.942431  0.118381  1
  O  O22  4  0.039394  0.912019  0.619786  1
  O  O23  4  0.062565  0.193614  0.968759  1
  O  O24  4  0.062819  0.662554  0.468955  1
  O  O25  4  0.077210  0.662926  0.958500  1
  O  O26  4  0.080209  0.193914  0.460282  1
  O  O27  4  0.102121  0.913152  0.807982  1
  O  O28  4  0.102641  0.944654  0.308138  1
  O  O29  4  0.111336  0.412821  0.335080  1
  O  O30  4  0.111509  0.443884  0.834480  1
  O  O31  4  0.133854  0.163916  0.183461  1
  O  O32  4  0.134703  0.689907  0.682195  1
  O  O33  4  0.151631  0.166825  0.674044  1
  O  O34  4  0.152450  0.694686  0.174482  1
  O  O35  4  0.173663  0.440411  0.021679  1
  O  O36  4  0.174066  0.414033  0.525191  1
  O  O37  4  0.183161  0.944517  0.548918  1
  O  O38  4  0.183808  0.916057  0.049839  1
  O  O39  4  0.204863  0.662489  0.896629  1
  O  O40  4  0.206222  0.192232  0.396643  1
  O  O41  4  0.220615  0.195460  0.885685  1
  O  O42  4  0.223279  0.663647  0.389043  1
  O  O43  4  0.245458  0.945278  0.738105  1
  O  O44  4  0.246417  0.915193  0.239124  1
