# generated using pymatgen
data_Li3Mn7O16
_symmetry_space_group_name_H-M   R3m
_cell_length_a   5.83018560
_cell_length_b   5.83018560
_cell_length_c   28.39724596
_cell_angle_alpha   90.00000000
_cell_angle_beta   90.00000000
_cell_angle_gamma   120.00000000
_symmetry_Int_Tables_number   160
_chemical_formula_structural   Li3Mn7O16
_chemical_formula_sum   'Li9 Mn21 O48'
_cell_volume   835.93327876
_cell_formula_units_Z   3
loop_
 _symmetry_equiv_pos_site_id
 _symmetry_equiv_pos_as_xyz
  1  'x, y, z'
  2  '-y, x-y, z'
  3  '-x+y, -x, z'
  4  '-y, -x, z'
  5  '-x+y, y, z'
  6  'x, x-y, z'
  7  'x+2/3, y+1/3, z+1/3'
  8  '-y+2/3, x-y+1/3, z+1/3'
  9  '-x+y+2/3, -x+1/3, z+1/3'
  10  '-y+2/3, -x+1/3, z+1/3'
  11  '-x+y+2/3, y+1/3, z+1/3'
  12  'x+2/3, x-y+1/3, z+1/3'
  13  'x+1/3, y+2/3, z+2/3'
  14  '-y+1/3, x-y+2/3, z+2/3'
  15  '-x+y+1/3, -x+2/3, z+2/3'
  16  '-y+1/3, -x+2/3, z+2/3'
  17  '-x+y+1/3, y+2/3, z+2/3'
  18  'x+1/3, x-y+2/3, z+2/3'
loop_
 _atom_site_type_symbol
 _atom_site_label
 _atom_site_symmetry_multiplicity
 _atom_site_fract_x
 _atom_site_fract_y
 _atom_site_fract_z
 _atom_site_occupancy
  Li  Li1  3  0.000000  0.000000  0.189229  1
  Li  Li2  3  0.000000  0.000000  0.311049  1
  Li  Li3  3  0.000000  0.000000  0.810331  1
  Mn  Mn4  9  0.006764  0.503382  0.248302  1
  Mn  Mn5  9  0.169031  0.338063  0.085002  1
  Mn  Mn6  3  0.000000  0.000000  0.001008  1
  O  O7  9  0.018039  0.509020  0.117600  1
  O  O8  9  0.038505  0.519252  0.622661  1
  O  O9  9  0.175276  0.350551  0.215703  1
  O  O10  9  0.187894  0.375788  0.711226  1
  O  O11  3  0.000000  0.000000  0.120029  1
  O  O12  3  0.000000  0.000000  0.381733  1
  O  O13  3  0.000000  0.000000  0.617316  1
  O  O14  3  0.000000  0.000000  0.880327  1
