# generated using pymatgen
data_Li4(CoO2)9
_symmetry_space_group_name_H-M   Pbam
_cell_length_a   8.69743219
_cell_length_b   23.94320030
_cell_length_c   2.82252593
_cell_angle_alpha   90.00000000
_cell_angle_beta   90.00000000
_cell_angle_gamma   90.00000000
_symmetry_Int_Tables_number   55
_chemical_formula_structural   Li4(CoO2)9
_chemical_formula_sum   'Li8 Co18 O36'
_cell_volume   587.77510872
_cell_formula_units_Z   2
loop_
 _symmetry_equiv_pos_site_id
 _symmetry_equiv_pos_as_xyz
  1  'x, y, z'
  2  '-x, -y, -z'
  3  '-x, -y, z'
  4  'x, y, -z'
  5  'x+1/2, -y+1/2, -z'
  6  '-x+1/2, y+1/2, z'
  7  '-x+1/2, y+1/2, -z'
  8  'x+1/2, -y+1/2, z'
loop_
 _atom_site_type_symbol
 _atom_site_label
 _atom_site_symmetry_multiplicity
 _atom_site_fract_x
 _atom_site_fract_y
 _atom_site_fract_z
 _atom_site_occupancy
  Li  Li1  4  0.169342  0.506816  0.500000  1
  Li  Li2  4  0.206387  0.296733  0.500000  1
  Co  Co3  4  0.016011  0.394242  0.500000  1
  Co  Co4  4  0.019488  0.189836  0.500000  1
  Co  Co5  4  0.140576  0.912814  0.000000  1
  Co  Co6  4  0.145524  0.690907  0.000000  1
  Co  Co7  2  0.000000  0.000000  0.500000  1
  O  O8  4  0.000449  0.921100  0.500000  1
  O  O9  4  0.031940  0.557533  0.000000  1
  O  O10  4  0.052093  0.340402  0.000000  1
  O  O11  4  0.102678  0.739105  0.500000  1
  O  O12  4  0.112292  0.834298  0.000000  1
  O  O13  4  0.146861  0.991915  0.000000  1
  O  O14  4  0.149724  0.213999  0.000000  1
  O  O15  4  0.179260  0.640484  0.500000  1
  O  O16  4  0.218480  0.412282  0.500000  1
