# generated using pymatgen
data_Li47(CoO4)8
_symmetry_space_group_name_H-M   P1
_cell_length_a   9.27517315
_cell_length_b   9.39689057
_cell_length_c   9.40974209
_cell_angle_alpha   89.88635449
_cell_angle_beta   89.96756789
_cell_angle_gamma   89.93716109
_symmetry_Int_Tables_number   1
_chemical_formula_structural   Li47(CoO4)8
_chemical_formula_sum   'Li47 Co8 O32'
_cell_volume   820.13006104
_cell_formula_units_Z   1
loop_
 _symmetry_equiv_pos_site_id
 _symmetry_equiv_pos_as_xyz
  1  'x, y, z'
loop_
 _atom_site_type_symbol
 _atom_site_label
 _atom_site_symmetry_multiplicity
 _atom_site_fract_x
 _atom_site_fract_y
 _atom_site_fract_z
 _atom_site_occupancy
  Li  Li1  1  0.102422  0.867023  0.350853  1
  Li  Li2  1  0.113019  0.633780  0.848343  1
  Li  Li3  1  0.113141  0.394253  0.886774  1
  Li  Li4  1  0.114592  0.106560  0.382448  1
  Li  Li5  1  0.118764  0.388785  0.640974  1
  Li  Li6  1  0.119490  0.109948  0.138286  1
  Li  Li7  1  0.131431  0.647592  0.117204  1
  Li  Li8  1  0.133020  0.848720  0.622111  1
  Li  Li9  1  0.134672  0.873001  0.893073  1
  Li  Li10  1  0.147257  0.624870  0.395529  1
  Li  Li11  1  0.156764  0.120605  0.624335  1
  Li  Li12  1  0.158897  0.380075  0.126215  1
  Li  Li13  1  0.342781  0.884327  0.120026  1
  Li  Li14  1  0.346473  0.616411  0.608604  1
  Li  Li15  1  0.364678  0.153032  0.120416  1
  Li  Li16  1  0.364803  0.351268  0.622722  1
  Li  Li17  1  0.366216  0.372711  0.894792  1
  Li  Li18  1  0.367981  0.131881  0.390474  1
  Li  Li19  1  0.380749  0.893462  0.642381  1
  Li  Li20  1  0.381553  0.608914  0.154586  1
  Li  Li21  1  0.387152  0.893950  0.884642  1
  Li  Li22  1  0.387819  0.133639  0.851848  1
  Li  Li23  1  0.388116  0.394176  0.362080  1
  Li  Li24  1  0.612334  0.395225  0.613344  1
  Li  Li25  1  0.613067  0.862463  0.149035  1
  Li  Li26  1  0.613368  0.103514  0.115764  1
  Li  Li27  1  0.615725  0.635567  0.650322  1
  Li  Li28  1  0.617136  0.640230  0.375640  1
  Li  Li29  1  0.620802  0.108903  0.363610  1
  Li  Li30  1  0.621176  0.391213  0.859339  1
  Li  Li31  1  0.632878  0.852268  0.880209  1
  Li  Li32  1  0.634123  0.624053  0.104807  1
  Li  Li33  1  0.637724  0.878951  0.610818  1
  Li  Li34  1  0.658021  0.120290  0.875894  1
  Li  Li35  1  0.658526  0.378901  0.372370  1
  Li  Li36  1  0.836397  0.878776  0.375717  1
  Li  Li37  1  0.842428  0.619647  0.874700  1
  Li  Li38  1  0.865281  0.372331  0.605632  1
  Li  Li39  1  0.865880  0.126521  0.106407  1
  Li  Li40  1  0.867499  0.352338  0.878497  1
  Li  Li41  1  0.867663  0.146118  0.379225  1
  Li  Li42  1  0.878901  0.611440  0.360783  1
  Li  Li43  1  0.880116  0.889731  0.860838  1
  Li  Li44  1  0.886207  0.605719  0.114403  1
  Li  Li45  1  0.887024  0.133159  0.648892  1
  Li  Li46  1  0.888180  0.894256  0.614144  1
  Li  Li47  1  0.888456  0.365838  0.148753  1
  Co  Co48  1  0.106874  0.367955  0.379754  1
  Co  Co49  1  0.107669  0.130994  0.878501  1
  Co  Co50  1  0.384709  0.852549  0.378312  1
  Co  Co51  1  0.390892  0.631221  0.878643  1
  Co  Co52  1  0.607676  0.133876  0.622130  1
  Co  Co53  1  0.610595  0.365918  0.118562  1
  Co  Co54  1  0.891655  0.868305  0.121485  1
  Co  Co55  1  0.892638  0.630742  0.620570  1
  O  O56  1  0.008550  0.238403  0.513897  1
  O  O57  1  0.008981  0.256662  0.012989  1
  O  O58  1  0.019924  0.993781  0.743510  1
  O  O59  1  0.020191  0.507116  0.243207  1
  O  O60  1  0.236115  0.237392  0.263352  1
  O  O61  1  0.237602  0.260734  0.765792  1
  O  O62  1  0.244038  0.475946  0.499621  1
  O  O63  1  0.247166  0.517601  0.993863  1
  O  O64  1  0.251157  0.976878  0.487478  1
  O  O65  1  0.253698  0.018082  0.991459  1
  O  O66  1  0.258491  0.754819  0.261762  1
  O  O67  1  0.264008  0.762956  0.762029  1
  O  O68  1  0.479031  0.995252  0.253111  1
  O  O69  1  0.482585  0.496672  0.741919  1
  O  O70  1  0.489711  0.758598  0.013933  1
  O  O71  1  0.493984  0.762395  0.512200  1
  O  O72  1  0.508732  0.239220  0.986207  1
  O  O73  1  0.508834  0.259452  0.487057  1
  O  O74  1  0.518556  0.995768  0.756751  1
  O  O75  1  0.527405  0.501750  0.248727  1
  O  O76  1  0.737965  0.233420  0.235488  1
  O  O77  1  0.738104  0.262433  0.735908  1
  O  O78  1  0.744326  0.519147  0.508570  1
  O  O79  1  0.746282  0.982105  0.007929  1
  O  O80  1  0.753833  0.018417  0.509295  1
  O  O81  1  0.755601  0.481908  0.005441  1
  O  O82  1  0.761693  0.737543  0.234857  1
  O  O83  1  0.762793  0.763130  0.735704  1
  O  O84  1  0.980905  0.005564  0.255374  1
  O  O85  1  0.981212  0.494305  0.756103  1
  O  O86  1  0.991651  0.742998  0.985509  1
  O  O87  1  0.992004  0.757743  0.487242  1
