# generated using pymatgen
data_Li4Co3O7
_symmetry_space_group_name_H-M   P-1
_cell_length_a   5.86511724
_cell_length_b   6.56506526
_cell_length_c   7.67289477
_cell_angle_alpha   114.88163068
_cell_angle_beta   99.97094540
_cell_angle_gamma   103.97833531
_symmetry_Int_Tables_number   2
_chemical_formula_structural   Li4Co3O7
_chemical_formula_sum   'Li8 Co6 O14'
_cell_volume   247.08878716
_cell_formula_units_Z   2
loop_
 _symmetry_equiv_pos_site_id
 _symmetry_equiv_pos_as_xyz
  1  'x, y, z'
  2  '-x, -y, -z'
loop_
 _atom_site_type_symbol
 _atom_site_label
 _atom_site_symmetry_multiplicity
 _atom_site_fract_x
 _atom_site_fract_y
 _atom_site_fract_z
 _atom_site_occupancy
  Li  Li1  2  0.144091  0.641325  0.931828  1
  Li  Li2  2  0.291566  0.785465  0.366810  1
  Li  Li3  2  0.428630  0.918290  0.780152  1
  Li  Li4  1  0.000000  0.500000  0.500000  1
  Li  Li5  1  0.500000  0.500000  0.500000  1
  Co  Co6  2  0.073674  0.080505  0.218274  1
  Co  Co7  2  0.219682  0.215794  0.634525  1
  Co  Co8  2  0.361591  0.356910  0.072655  1
  O  O9  2  0.062165  0.272624  0.862650  1
  O  O10  2  0.096558  0.851995  0.568472  1
  O  O11  2  0.183950  0.408041  0.260168  1
  O  O12  2  0.250886  0.024538  0.005391  1
  O  O13  2  0.346433  0.570380  0.734765  1
  O  O14  2  0.374757  0.136294  0.431765  1
  O  O15  2  0.472233  0.688797  0.128743  1
