# generated using pymatgen
data_Li4Co3O7
_symmetry_space_group_name_H-M   R-3m
_cell_length_a   2.91162055
_cell_length_b   2.91162055
_cell_length_c   103.54023243
_cell_angle_alpha   90.00000000
_cell_angle_beta   90.00000000
_cell_angle_gamma   120.00000000
_symmetry_Int_Tables_number   166
_chemical_formula_structural   Li4Co3O7
_chemical_formula_sum   'Li24 Co18 O42'
_cell_volume   760.16753782
_cell_formula_units_Z   6
loop_
 _symmetry_equiv_pos_site_id
 _symmetry_equiv_pos_as_xyz
  1  'x, y, z'
  2  '-x+2/3, -y+1/3, -z+1/3'
  3  '-y, x-y, z'
  4  'y+2/3, -x+y+1/3, -z+1/3'
  5  '-x+y, -x, z'
  6  'x-y+2/3, x+1/3, -z+1/3'
  7  'y+2/3, x+1/3, -z+1/3'
  8  '-y, -x, z'
  9  'x-y+2/3, -y+1/3, -z+1/3'
  10  '-x+y, y, z'
  11  '-x+2/3, -x+y+1/3, -z+1/3'
  12  'x, x-y, z'
  13  'x+2/3, y+1/3, z+1/3'
  14  '-x+1/3, -y+2/3, -z+2/3'
  15  '-y+2/3, x-y+1/3, z+1/3'
  16  'y+1/3, -x+y+2/3, -z+2/3'
  17  '-x+y+2/3, -x+1/3, z+1/3'
  18  'x-y+1/3, x+2/3, -z+2/3'
  19  'y+1/3, x+2/3, -z+2/3'
  20  '-y+2/3, -x+1/3, z+1/3'
  21  'x-y+1/3, -y+2/3, -z+2/3'
  22  '-x+y+2/3, y+1/3, z+1/3'
  23  '-x+1/3, -x+y+2/3, -z+2/3'
  24  'x+2/3, x-y+1/3, z+1/3'
  25  'x+1/3, y+2/3, z+2/3'
  26  '-x, -y, -z'
  27  '-y+1/3, x-y+2/3, z+2/3'
  28  'y, -x+y, -z'
  29  '-x+y+1/3, -x+2/3, z+2/3'
  30  'x-y, x, -z'
  31  'y, x, -z'
  32  '-y+1/3, -x+2/3, z+2/3'
  33  'x-y, -y, -z'
  34  '-x+y+1/3, y+2/3, z+2/3'
  35  '-x, -x+y, -z'
  36  'x+1/3, x-y+2/3, z+2/3'
loop_
 _atom_site_type_symbol
 _atom_site_label
 _atom_site_symmetry_multiplicity
 _atom_site_fract_x
 _atom_site_fract_y
 _atom_site_fract_z
 _atom_site_occupancy
  Li  Li1  6  0.000000  0.000000  0.143262  1
  Li  Li2  6  0.000000  0.000000  0.285704  1
  Li  Li3  6  0.000000  0.000000  0.428537  1
  Li  Li4  3  0.000000  0.000000  0.000000  1
  Li  Li5  3  0.333333  0.666667  0.166667  1
  Co  Co6  6  0.000000  0.000000  0.071418  1
  Co  Co7  6  0.000000  0.000000  0.214445  1
  Co  Co8  6  0.000000  0.000000  0.357144  1
  O  O9  6  0.000000  0.000000  0.034732  1
  O  O10  6  0.000000  0.000000  0.107826  1
  O  O11  6  0.000000  0.000000  0.178835  1
  O  O12  6  0.000000  0.000000  0.251021  1
  O  O13  6  0.000000  0.000000  0.320443  1
  O  O14  6  0.000000  0.000000  0.393810  1
  O  O15  6  0.000000  0.000000  0.462791  1
