# generated using pymatgen
data_Li4Co15O28
_symmetry_space_group_name_H-M   P-1
_cell_length_a   7.69778352
_cell_length_b   8.17327352
_cell_length_c   8.72043566
_cell_angle_alpha   105.92669833
_cell_angle_beta   107.06780206
_cell_angle_gamma   101.89984663
_symmetry_Int_Tables_number   2
_chemical_formula_structural   Li4Co15O28
_chemical_formula_sum   'Li4 Co15 O28'
_cell_volume   479.19438118
_cell_formula_units_Z   1
loop_
 _symmetry_equiv_pos_site_id
 _symmetry_equiv_pos_as_xyz
  1  'x, y, z'
  2  '-x, -y, -z'
loop_
 _atom_site_type_symbol
 _atom_site_label
 _atom_site_symmetry_multiplicity
 _atom_site_fract_x
 _atom_site_fract_y
 _atom_site_fract_z
 _atom_site_occupancy
  Li  Li1  2  0.147135  0.430327  0.575425  1
  Li  Li2  2  0.442919  0.272888  0.715610  1
  Co  Co3  2  0.070864  0.214329  0.784758  1
  Co  Co4  2  0.138936  0.925717  0.571950  1
  Co  Co5  2  0.216543  0.645202  0.356874  1
  Co  Co6  2  0.290552  0.360928  0.143986  1
  Co  Co7  2  0.359841  0.071553  0.928054  1
  Co  Co8  2  0.431597  0.788971  0.711731  1
  Co  Co9  1  0.000000  0.000000  0.000000  1
  Co  Co10  1  0.000000  0.500000  0.000000  1
  Co  Co11  1  0.500000  0.500000  0.500000  1
  O  O12  2  0.028069  0.267066  0.994248  1
  O  O13  2  0.046074  0.439052  0.789766  1
  O  O14  2  0.092738  0.987808  0.788288  1
  O  O15  2  0.124982  0.162565  0.583962  1
  O  O16  2  0.165093  0.693384  0.561046  1
  O  O17  2  0.184299  0.869659  0.365547  1
  O  O18  2  0.240660  0.417164  0.349232  1
  O  O19  2  0.263895  0.585434  0.150776  1
  O  O20  2  0.300851  0.126966  0.131818  1
  O  O21  2  0.332634  0.298826  0.933544  1
  O  O22  2  0.386152  0.847046  0.919780  1
  O  O23  2  0.400087  0.017181  0.721484  1
  O  O24  2  0.449121  0.554263  0.705219  1
  O  O25  2  0.473465  0.726312  0.499977  1
