# generated using pymatgen
data_Li4Co3O7
_symmetry_space_group_name_H-M   C2/m
_cell_length_a   28.90759733
_cell_length_b   2.94774218
_cell_length_c   5.91719110
_cell_angle_alpha   90.00000000
_cell_angle_beta   96.40836023
_cell_angle_gamma   90.00000000
_symmetry_Int_Tables_number   12
_chemical_formula_structural   Li4Co3O7
_chemical_formula_sum   'Li16 Co12 O28'
_cell_volume   501.06601579
_cell_formula_units_Z   4
loop_
 _symmetry_equiv_pos_site_id
 _symmetry_equiv_pos_as_xyz
  1  'x, y, z'
  2  '-x, -y, -z'
  3  '-x, y, -z'
  4  'x, -y, z'
  5  'x+1/2, y+1/2, z'
  6  '-x+1/2, -y+1/2, -z'
  7  '-x+1/2, y+1/2, -z'
  8  'x+1/2, -y+1/2, z'
loop_
 _atom_site_type_symbol
 _atom_site_label
 _atom_site_symmetry_multiplicity
 _atom_site_fract_x
 _atom_site_fract_y
 _atom_site_fract_z
 _atom_site_occupancy
  Li  Li1  4  0.070042  0.500000  0.289269  1
  Li  Li2  4  0.141422  0.000000  0.571953  1
  Li  Li3  4  0.214905  0.500000  0.858014  1
  Li  Li4  2  0.000000  0.000000  0.000000  1
  Li  Li5  2  0.000000  0.000000  0.500000  1
  Co  Co6  4  0.067508  0.500000  0.775122  1
  Co  Co7  4  0.140357  0.000000  0.072899  1
  Co  Co8  4  0.214006  0.500000  0.354219  1
  O  O9  4  0.007499  0.500000  0.753744  1
  O  O10  4  0.071241  0.000000  0.553103  1
  O  O11  4  0.071639  0.000000  0.023700  1
  O  O12  4  0.135837  0.500000  0.834337  1
  O  O13  4  0.144054  0.500000  0.300873  1
  O  O14  4  0.212401  0.000000  0.119184  1
  O  O15  4  0.215240  0.000000  0.590759  1
