# generated using pymatgen
data_Li4Co3O7
_symmetry_space_group_name_H-M   C2/m
_cell_length_a   21.22140556
_cell_length_b   2.94066966
_cell_length_c   8.15329967
_cell_angle_alpha   90.00000000
_cell_angle_beta   101.84328759
_cell_angle_gamma   90.00000000
_symmetry_Int_Tables_number   12
_chemical_formula_structural   Li4Co3O7
_chemical_formula_sum   'Li16 Co12 O28'
_cell_volume   497.97664509
_cell_formula_units_Z   4
loop_
 _symmetry_equiv_pos_site_id
 _symmetry_equiv_pos_as_xyz
  1  'x, y, z'
  2  '-x, -y, -z'
  3  '-x, y, -z'
  4  'x, -y, z'
  5  'x+1/2, y+1/2, z'
  6  '-x+1/2, -y+1/2, -z'
  7  '-x+1/2, y+1/2, -z'
  8  'x+1/2, -y+1/2, z'
loop_
 _atom_site_type_symbol
 _atom_site_label
 _atom_site_symmetry_multiplicity
 _atom_site_fract_x
 _atom_site_fract_y
 _atom_site_fract_z
 _atom_site_occupancy
  Li  Li1  4  0.069261  0.000000  0.796934  1
  Li  Li2  4  0.142262  0.500000  0.074993  1
  Li  Li3  4  0.213919  0.000000  0.353297  1
  Li  Li4  2  0.000000  0.500000  0.000000  1
  Li  Li5  2  0.000000  0.500000  0.500000  1
  Co  Co6  4  0.069627  0.000000  0.273167  1
  Co  Co7  4  0.142589  0.500000  0.572066  1
  Co  Co8  4  0.211249  0.000000  0.861279  1
  O  O9  4  0.005987  0.500000  0.254117  1
  O  O10  4  0.071845  0.000000  0.061394  1
  O  O11  4  0.074713  0.000000  0.514654  1
  O  O12  4  0.137969  0.500000  0.323479  1
  O  O13  4  0.142949  0.500000  0.819703  1
  O  O14  4  0.210809  0.000000  0.617569  1
  O  O15  4  0.217838  0.000000  0.100301  1
