# generated using pymatgen
data_Li4Co3O7
_symmetry_space_group_name_H-M   C2/m
_cell_length_a   19.45498602
_cell_length_b   2.94807671
_cell_length_c   9.73993415
_cell_angle_alpha   90.00000000
_cell_angle_beta   116.36572189
_cell_angle_gamma   90.00000000
_symmetry_Int_Tables_number   12
_chemical_formula_structural   Li4Co3O7
_chemical_formula_sum   'Li16 Co12 O28'
_cell_volume   500.52166519
_cell_formula_units_Z   4
loop_
 _symmetry_equiv_pos_site_id
 _symmetry_equiv_pos_as_xyz
  1  'x, y, z'
  2  '-x, -y, -z'
  3  '-x, y, -z'
  4  'x, -y, z'
  5  'x+1/2, y+1/2, z'
  6  '-x+1/2, -y+1/2, -z'
  7  '-x+1/2, y+1/2, -z'
  8  'x+1/2, -y+1/2, z'
loop_
 _atom_site_type_symbol
 _atom_site_label
 _atom_site_symmetry_multiplicity
 _atom_site_fract_x
 _atom_site_fract_y
 _atom_site_fract_z
 _atom_site_occupancy
  Li  Li1  4  0.069376  0.500000  0.780171  1
  Li  Li2  4  0.140508  0.000000  0.071787  1
  Li  Li3  4  0.210141  0.500000  0.351796  1
  Li  Li4  2  0.000000  0.000000  0.500000  1
  Li  Li5  2  0.000000  0.500000  0.000000  1
  Co  Co6  4  0.068459  0.000000  0.273996  1
  Co  Co7  4  0.140307  0.500000  0.567806  1
  Co  Co8  4  0.212861  0.000000  0.855411  1
  O  O9  4  0.024380  0.000000  0.871270  1
  O  O10  4  0.041044  0.500000  0.392676  1
  O  O11  4  0.103545  0.500000  0.184017  1
  O  O12  4  0.109933  0.000000  0.671639  1
  O  O13  4  0.167460  0.000000  0.450919  1
  O  O14  4  0.181641  0.500000  0.961259  1
  O  O15  4  0.243848  0.500000  0.744223  1
