# generated using pymatgen
data_Li4Co3O7
_symmetry_space_group_name_H-M   P-1
_cell_length_a   6.52292257
_cell_length_b   6.54293696
_cell_length_c   6.56065012
_cell_angle_alpha   71.68923507
_cell_angle_beta   72.54832211
_cell_angle_gamma   71.95897268
_symmetry_Int_Tables_number   2
_chemical_formula_structural   Li4Co3O7
_chemical_formula_sum   'Li8 Co6 O14'
_cell_volume   246.30711453
_cell_formula_units_Z   2
loop_
 _symmetry_equiv_pos_site_id
 _symmetry_equiv_pos_as_xyz
  1  'x, y, z'
  2  '-x, -y, -z'
loop_
 _atom_site_type_symbol
 _atom_site_label
 _atom_site_symmetry_multiplicity
 _atom_site_fract_x
 _atom_site_fract_y
 _atom_site_fract_z
 _atom_site_occupancy
  Li  Li1  2  0.073485  0.145093  0.290375  1
  Li  Li2  2  0.214586  0.428845  0.854611  1
  Li  Li3  2  0.347177  0.710085  0.435750  1
  Li  Li4  1  0.000000  0.500000  0.500000  1
  Li  Li5  1  0.500000  0.000000  0.000000  1
  Co  Co6  2  0.140769  0.784471  0.074960  1
  Co  Co7  2  0.277503  0.078589  0.637137  1
  Co  Co8  2  0.426267  0.360407  0.214105  1
  O  O9  2  0.024891  0.828495  0.383661  1
  O  O10  2  0.132011  0.472291  0.171949  1
  O  O11  2  0.174252  0.097558  0.960849  1
  O  O12  2  0.275249  0.747631  0.755105  1
  O  O13  2  0.334980  0.380763  0.506468  1
  O  O14  2  0.404105  0.056748  0.317420  1
  O  O15  2  0.466952  0.661624  0.091012  1
