# generated using pymatgen
data_Li4Co3O7
_symmetry_space_group_name_H-M   P-1
_cell_length_a   5.08958073
_cell_length_b   6.44909809
_cell_length_c   7.72597878
_cell_angle_alpha   87.08714654
_cell_angle_beta   78.37790327
_cell_angle_gamma   83.57451300
_symmetry_Int_Tables_number   2
_chemical_formula_structural   Li4Co3O7
_chemical_formula_sum   'Li8 Co6 O14'
_cell_volume   246.72767745
_cell_formula_units_Z   2
loop_
 _symmetry_equiv_pos_site_id
 _symmetry_equiv_pos_as_xyz
  1  'x, y, z'
  2  '-x, -y, -z'
loop_
 _atom_site_type_symbol
 _atom_site_label
 _atom_site_symmetry_multiplicity
 _atom_site_fract_x
 _atom_site_fract_y
 _atom_site_fract_z
 _atom_site_occupancy
  Li  Li1  2  0.074171  0.856938  0.352987  1
  Li  Li2  2  0.216045  0.573256  0.071725  1
  Li  Li3  2  0.348687  0.277316  0.789238  1
  Li  Li4  1  0.000000  0.000000  0.000000  1
  Li  Li5  1  0.500000  0.000000  0.500000  1
  Co  Co6  2  0.138800  0.720258  0.722184  1
  Co  Co7  2  0.285314  0.432329  0.428988  1
  Co  Co8  2  0.425250  0.141077  0.137992  1
  O  O9  2  0.041713  0.435783  0.673674  1
  O  O10  2  0.133480  0.275490  0.049903  1
  O  O11  2  0.190438  0.152287  0.375271  1
  O  O12  2  0.269251  0.975445  0.755041  1
  O  O13  2  0.348363  0.875394  0.094684  1
  O  O14  2  0.389083  0.697922  0.463892  1
  O  O15  2  0.467642  0.594191  0.819328  1
