# generated using pymatgen
data_Li4Co3O7
_symmetry_space_group_name_H-M   P-1
_cell_length_a   2.98049132
_cell_length_b   5.03139882
_cell_length_c   16.54346953
_cell_angle_alpha   89.77528124
_cell_angle_beta   87.33410505
_cell_angle_gamma   88.67851746
_symmetry_Int_Tables_number   2
_chemical_formula_structural   Li4Co3O7
_chemical_formula_sum   'Li8 Co6 O14'
_cell_volume   247.75112513
_cell_formula_units_Z   2
loop_
 _symmetry_equiv_pos_site_id
 _symmetry_equiv_pos_as_xyz
  1  'x, y, z'
  2  '-x, -y, -z'
loop_
 _atom_site_type_symbol
 _atom_site_label
 _atom_site_symmetry_multiplicity
 _atom_site_fract_x
 _atom_site_fract_y
 _atom_site_fract_z
 _atom_site_occupancy
  Li  Li1  2  0.066572  0.353936  0.856930  1
  Li  Li2  2  0.214771  0.071134  0.571551  1
  Li  Li3  2  0.355369  0.786385  0.285821  1
  Li  Li4  1  0.000000  0.000000  0.000000  1
  Li  Li5  1  0.500000  0.500000  0.000000  1
  Co  Co6  2  0.152386  0.718599  0.714913  1
  Co  Co7  2  0.281952  0.429427  0.427937  1
  Co  Co8  2  0.436456  0.138938  0.137067  1
  O  O9  2  0.004690  0.688396  0.922614  1
  O  O10  2  0.140467  0.011801  0.786202  1
  O  O11  2  0.190890  0.415099  0.644763  1
  O  O12  2  0.246694  0.731060  0.499045  1
  O  O13  2  0.283645  0.126073  0.356711  1
  O  O14  2  0.412400  0.428787  0.214372  1
  O  O15  2  0.460957  0.850398  0.080474  1
