# generated using pymatgen
data_Li4Co3O7
_symmetry_space_group_name_H-M   P-1
_cell_length_a   2.96304270
_cell_length_b   7.77480016
_cell_length_c   11.28123342
_cell_angle_alpha   80.21396377
_cell_angle_beta   82.98823560
_cell_angle_gamma   81.04238994
_symmetry_Int_Tables_number   2
_chemical_formula_structural   Li4Co3O7
_chemical_formula_sum   'Li8 Co6 O14'
_cell_volume   251.75830158
_cell_formula_units_Z   2
loop_
 _symmetry_equiv_pos_site_id
 _symmetry_equiv_pos_as_xyz
  1  'x, y, z'
  2  '-x, -y, -z'
loop_
 _atom_site_type_symbol
 _atom_site_label
 _atom_site_symmetry_multiplicity
 _atom_site_fract_x
 _atom_site_fract_y
 _atom_site_fract_z
 _atom_site_occupancy
  Li  Li1  2  0.139505  0.429299  0.791693  1
  Li  Li2  2  0.285739  0.857449  0.066625  1
  Li  Li3  2  0.429558  0.284837  0.353850  1
  Li  Li4  1  0.000000  0.000000  0.500000  1
  Li  Li5  1  0.500000  0.500000  0.000000  1
  Co  Co6  2  0.070828  0.227643  0.138129  1
  Co  Co7  2  0.210969  0.643495  0.424215  1
  Co  Co8  2  0.352781  0.070243  0.721473  1
  O  O9  2  0.048252  0.108710  0.306010  1
  O  O10  2  0.108918  0.306674  0.983742  1
  O  O11  2  0.179673  0.523990  0.601473  1
  O  O12  2  0.238827  0.757970  0.249967  1
  O  O13  2  0.289633  0.955951  0.884756  1
  O  O14  2  0.409194  0.181049  0.546127  1
  O  O15  2  0.440958  0.381760  0.175947  1
