# generated using pymatgen
data_Li4Co3O7
_symmetry_space_group_name_H-M   C2/m
_cell_length_a   9.76772237
_cell_length_b   2.88730183
_cell_length_c   17.23574515
_cell_angle_alpha   90.00000000
_cell_angle_beta   95.50638926
_cell_angle_gamma   90.00000000
_symmetry_Int_Tables_number   12
_chemical_formula_structural   Li4Co3O7
_chemical_formula_sum   'Li16 Co12 O28'
_cell_volume   483.84568157
_cell_formula_units_Z   4
loop_
 _symmetry_equiv_pos_site_id
 _symmetry_equiv_pos_as_xyz
  1  'x, y, z'
  2  '-x, -y, -z'
  3  '-x, y, -z'
  4  'x, -y, z'
  5  'x+1/2, y+1/2, z'
  6  '-x+1/2, -y+1/2, -z'
  7  '-x+1/2, y+1/2, -z'
  8  'x+1/2, -y+1/2, z'
loop_
 _atom_site_type_symbol
 _atom_site_label
 _atom_site_symmetry_multiplicity
 _atom_site_fract_x
 _atom_site_fract_y
 _atom_site_fract_z
 _atom_site_occupancy
  Li  Li1  4  0.071282  0.500000  0.143092  1
  Li  Li2  4  0.143658  0.000000  0.287158  1
  Li  Li3  4  0.211258  0.500000  0.431280  1
  Li  Li4  2  0.000000  0.000000  0.000000  1
  Li  Li5  2  0.000000  0.000000  0.500000  1
  Co  Co6  4  0.070341  0.500000  0.635283  1
  Co  Co7  4  0.143675  0.000000  0.786912  1
  Co  Co8  4  0.215880  0.500000  0.929465  1
  O  O9  4  0.015610  0.500000  0.750068  1
  O  O10  4  0.061441  0.000000  0.389113  1
  O  O11  4  0.090554  0.000000  0.893791  1
  O  O12  4  0.142762  0.500000  0.544739  1
  O  O13  4  0.159497  0.500000  0.034716  1
  O  O14  4  0.200597  0.000000  0.684714  1
  O  O15  4  0.225717  0.000000  0.174754  1
