# generated using pymatgen
data_Li4Co13O28
_symmetry_space_group_name_H-M   P1
_cell_length_a   7.47781264
_cell_length_b   8.12001926
_cell_length_c   8.60839610
_cell_angle_alpha   100.21513250
_cell_angle_beta   104.30127178
_cell_angle_gamma   104.94881352
_symmetry_Int_Tables_number   1
_chemical_formula_structural   Li4Co13O28
_chemical_formula_sum   'Li4 Co13 O28'
_cell_volume   472.86085775
_cell_formula_units_Z   1
loop_
 _symmetry_equiv_pos_site_id
 _symmetry_equiv_pos_as_xyz
  1  'x, y, z'
loop_
 _atom_site_type_symbol
 _atom_site_label
 _atom_site_symmetry_multiplicity
 _atom_site_fract_x
 _atom_site_fract_y
 _atom_site_fract_z
 _atom_site_occupancy
  Li  Li1  1  0.077523  0.715952  0.803565  1
  Li  Li2  1  0.288477  0.343180  0.139903  1
  Li  Li3  1  0.779036  0.865227  0.649828  1
  Li  Li4  1  0.917006  0.269149  0.208775  1
  Co  Co5  1  0.071711  0.212002  0.790934  1
  Co  Co6  1  0.143174  0.428196  0.571058  1
  Co  Co7  1  0.219999  0.656766  0.366624  1
  Co  Co8  1  0.285911  0.866487  0.144853  1
  Co  Co9  1  0.353170  0.070785  0.930560  1
  Co  Co10  1  0.430649  0.289554  0.719150  1
  Co  Co11  1  0.499656  0.499606  0.499487  1
  Co  Co12  1  0.570373  0.713539  0.281925  1
  Co  Co13  1  0.641975  0.917529  0.057080  1
  Co  Co14  1  0.720453  0.145200  0.860461  1
  Co  Co15  1  0.780560  0.348567  0.635307  1
  Co  Co16  1  0.855263  0.570532  0.424540  1
  Co  Co17  1  0.932004  0.790794  0.208298  1
  O  O18  1  0.025581  0.766711  0.035579  1
  O  O19  1  0.050115  0.435299  0.755743  1
  O  O20  1  0.098984  0.997555  0.798253  1
  O  O21  1  0.123497  0.651371  0.550740  1
  O  O22  1  0.162601  0.210828  0.602868  1
  O  O23  1  0.199476  0.871293  0.335057  1
  O  O24  1  0.227103  0.423748  0.377410  1
  O  O25  1  0.296638  0.085835  0.124254  1
  O  O26  1  0.300179  0.636483  0.175445  1
  O  O27  1  0.340947  0.297726  0.910640  1
  O  O28  1  0.363045  0.844212  0.949995  1
  O  O29  1  0.409249  0.507574  0.688111  1
  O  O30  1  0.450593  0.072072  0.747518  1
  O  O31  1  0.492524  0.728175  0.475127  1
  O  O32  1  0.515701  0.276961  0.529681  1
  O  O33  1  0.556136  0.931880  0.250017  1
  O  O34  1  0.583836  0.492462  0.305748  1
  O  O35  1  0.631718  0.145822  0.049803  1
  O  O36  1  0.659827  0.704261  0.090874  1
  O  O37  1  0.701304  0.916158  0.868807  1
  O  O38  1  0.702856  0.365388  0.826871  1
  O  O39  1  0.776536  0.582418  0.616012  1
  O  O40  1  0.800926  0.128735  0.667398  1
  O  O41  1  0.836411  0.788209  0.402477  1
  O  O42  1  0.874007  0.348510  0.446417  1
  O  O43  1  0.892702  0.998218  0.194709  1
  O  O44  1  0.951477  0.563437  0.245505  1
  O  O45  1  0.980515  0.239880  0.972306  1
