# generated using pymatgen
data_Li4CoO4
_symmetry_space_group_name_H-M   Pc
_cell_length_a   9.05914386
_cell_length_b   9.50135896
_cell_length_c   9.32828459
_cell_angle_alpha   90.00000000
_cell_angle_beta   90.89417392
_cell_angle_gamma   90.00000000
_symmetry_Int_Tables_number   7
_chemical_formula_structural   Li4CoO4
_chemical_formula_sum   'Li32 Co8 O32'
_cell_volume   802.82664876
_cell_formula_units_Z   8
loop_
 _symmetry_equiv_pos_site_id
 _symmetry_equiv_pos_as_xyz
  1  'x, y, z'
  2  'x, -y, z+1/2'
loop_
 _atom_site_type_symbol
 _atom_site_label
 _atom_site_symmetry_multiplicity
 _atom_site_fract_x
 _atom_site_fract_y
 _atom_site_fract_z
 _atom_site_occupancy
  Li  Li1  2  0.084337  0.370198  0.335317  1
  Li  Li2  2  0.110337  0.100147  0.862639  1
  Li  Li3  2  0.114062  0.130693  0.135969  1
  Li  Li4  2  0.129730  0.122469  0.598330  1
  Li  Li5  2  0.136977  0.358786  0.901821  1
  Li  Li6  2  0.331800  0.129499  0.389613  1
  Li  Li7  2  0.350339  0.368124  0.100259  1
  Li  Li8  2  0.377122  0.140599  0.837617  1
  Li  Li9  2  0.381593  0.398207  0.370929  1
  Li  Li10  2  0.410334  0.366596  0.641344  1
  Li  Li11  2  0.598413  0.141579  0.360713  1
  Li  Li12  2  0.628390  0.351073  0.170988  1
  Li  Li13  2  0.639330  0.102463  0.629987  1
  Li  Li14  2  0.648117  0.114406  0.892098  1
  Li  Li15  2  0.701478  0.380920  0.590415  1
  Li  Li16  2  0.848534  0.134123  0.112625  1
  Co  Co17  2  0.129163  0.389564  0.620328  1
  Co  Co18  2  0.388430  0.101709  0.115719  1
  Co  Co19  2  0.623772  0.381060  0.887218  1
  Co  Co20  2  0.874096  0.109239  0.390495  1
  O  O21  2  0.035195  0.493484  0.499622  1
  O  O22  2  0.057580  0.261315  0.735064  1
  O  O23  2  0.246419  0.499132  0.736309  1
  O  O24  2  0.249993  0.284191  0.504509  1
  O  O25  2  0.255050  0.211584  0.997092  1
  O  O26  2  0.256255  0.001406  0.732427  1
  O  O27  2  0.455627  0.240563  0.243655  1
  O  O28  2  0.489157  0.002327  0.485818  1
  O  O29  2  0.508538  0.489415  0.007647  1
  O  O30  2  0.538060  0.252072  0.761062  1
  O  O31  2  0.712866  0.491946  0.770647  1
  O  O32  2  0.719775  0.266380  0.007068  1
  O  O33  2  0.742527  0.021008  0.267692  1
  O  O34  2  0.747615  0.211136  0.493239  1
  O  O35  2  0.982877  0.208740  0.268907  1
  O  O36  2  0.989116  0.007654  0.001344  1
