# generated using pymatgen
data_Li4Co5O12
_symmetry_space_group_name_H-M   P2_1
_cell_length_a   4.91285617
_cell_length_b   8.42634665
_cell_length_c   9.96707924
_cell_angle_alpha   90.00000000
_cell_angle_beta   99.46404529
_cell_angle_gamma   90.00000000
_symmetry_Int_Tables_number   4
_chemical_formula_structural   Li4Co5O12
_chemical_formula_sum   'Li8 Co10 O24'
_cell_volume   406.99539378
_cell_formula_units_Z   2
loop_
 _symmetry_equiv_pos_site_id
 _symmetry_equiv_pos_as_xyz
  1  'x, y, z'
  2  '-x, y+1/2, -z'
loop_
 _atom_site_type_symbol
 _atom_site_label
 _atom_site_symmetry_multiplicity
 _atom_site_fract_x
 _atom_site_fract_y
 _atom_site_fract_z
 _atom_site_occupancy
  Li  Li1  2  0.004704  0.253631  0.233727  1
  Li  Li2  2  0.011864  0.104948  0.765249  1
  Li  Li3  2  0.259446  0.253170  0.000842  1
  Li  Li4  2  0.493035  0.078490  0.235734  1
  Co  Co5  2  0.244540  0.576464  0.002829  1
  Co  Co6  2  0.248433  0.084248  0.503069  1
  Co  Co7  2  0.251487  0.752867  0.499379  1
  Co  Co8  2  0.251559  0.417954  0.501677  1
  Co  Co9  2  0.253698  0.915417  0.000843  1
  O  O10  2  0.097997  0.428860  0.110520  1
  O  O11  2  0.109155  0.063822  0.106985  1
  O  O12  2  0.109516  0.918187  0.600408  1
  O  O13  2  0.109582  0.248902  0.600243  1
  O  O14  2  0.119660  0.590174  0.599749  1
  O  O15  2  0.149848  0.740464  0.101301  1
  O  O16  2  0.352551  0.742399  0.893570  1
  O  O17  2  0.378417  0.245560  0.399651  1
  O  O18  2  0.382302  0.920184  0.403304  1
  O  O19  2  0.383853  0.585996  0.401952  1
  O  O20  2  0.387809  0.433126  0.897297  1
  O  O21  2  0.387967  0.061570  0.898134  1
