# generated using pymatgen
data_Li4Co3O7
_symmetry_space_group_name_H-M   C2/m
_cell_length_a   33.19034049
_cell_length_b   3.00293676
_cell_length_c   5.04028612
_cell_angle_alpha   90.00000000
_cell_angle_beta   90.25326883
_cell_angle_gamma   90.00000000
_symmetry_Int_Tables_number   12
_chemical_formula_structural   Li4Co3O7
_chemical_formula_sum   'Li16 Co12 O28'
_cell_volume   502.35281692
_cell_formula_units_Z   4
loop_
 _symmetry_equiv_pos_site_id
 _symmetry_equiv_pos_as_xyz
  1  'x, y, z'
  2  '-x, -y, -z'
  3  '-x, y, -z'
  4  'x, -y, z'
  5  'x+1/2, y+1/2, z'
  6  '-x+1/2, -y+1/2, -z'
  7  '-x+1/2, y+1/2, -z'
  8  'x+1/2, -y+1/2, z'
loop_
 _atom_site_type_symbol
 _atom_site_label
 _atom_site_symmetry_multiplicity
 _atom_site_fract_x
 _atom_site_fract_y
 _atom_site_fract_z
 _atom_site_occupancy
  Li  Li1  4  0.071576  0.500000  0.647039  1
  Li  Li2  4  0.142697  0.000000  0.786707  1
  Li  Li3  4  0.214312  0.500000  0.928535  1
  Li  Li4  2  0.000000  0.000000  0.500000  1
  Li  Li5  2  0.000000  0.500000  0.000000  1
  Co  Co6  4  0.068271  0.000000  0.143435  1
  Co  Co7  4  0.142062  0.500000  0.279753  1
  Co  Co8  4  0.213887  0.000000  0.429286  1
  O  O9  4  0.038368  0.500000  0.312468  1
  O  O10  4  0.039762  0.000000  0.855288  1
  O  O11  4  0.105945  0.000000  0.430980  1
  O  O12  4  0.107130  0.500000  0.983009  1
  O  O13  4  0.177648  0.500000  0.586802  1
  O  O14  4  0.178800  0.000000  0.124983  1
  O  O15  4  0.249803  0.000000  0.730280  1
