# generated using pymatgen
data_Li4CoO4
_symmetry_space_group_name_H-M   Pc
_cell_length_a   9.19730400
_cell_length_b   9.35027335
_cell_length_c   9.14289338
_cell_angle_alpha   90.00000000
_cell_angle_beta   91.22541837
_cell_angle_gamma   90.00000000
_symmetry_Int_Tables_number   7
_chemical_formula_structural   Li4CoO4
_chemical_formula_sum   'Li32 Co8 O32'
_cell_volume   786.08438181
_cell_formula_units_Z   8
loop_
 _symmetry_equiv_pos_site_id
 _symmetry_equiv_pos_as_xyz
  1  'x, y, z'
  2  'x, -y, z+1/2'
loop_
 _atom_site_type_symbol
 _atom_site_label
 _atom_site_symmetry_multiplicity
 _atom_site_fract_x
 _atom_site_fract_y
 _atom_site_fract_z
 _atom_site_occupancy
  Li  Li1  2  0.111877  0.383182  0.128658  1
  Li  Li2  2  0.155735  0.131014  0.903008  1
  Li  Li3  2  0.319046  0.379451  0.416077  1
  Li  Li4  2  0.355998  0.350444  0.824167  1
  Li  Li5  2  0.358384  0.108774  0.347427  1
  Li  Li6  2  0.399345  0.120108  0.629482  1
  Li  Li7  2  0.600512  0.369792  0.363940  1
  Li  Li8  2  0.606070  0.133112  0.156853  1
  Li  Li9  2  0.616435  0.398074  0.630162  1
  Li  Li10  2  0.639503  0.366964  0.897291  1
  Li  Li11  2  0.670722  0.134830  0.602085  1
  Li  Li12  2  0.830463  0.368017  0.107876  1
  Li  Li13  2  0.879743  0.132918  0.401021  1
  Li  Li14  2  0.888804  0.103825  0.137477  1
  Li  Li15  2  0.891898  0.129841  0.865595  1
  Li  Li16  2  0.905382  0.364210  0.662468  1
  Co  Co17  2  0.127353  0.111050  0.613144  1
  Co  Co18  2  0.386097  0.374631  0.117909  1
  Co  Co19  2  0.620454  0.098790  0.878387  1
  Co  Co20  2  0.875508  0.402211  0.383436  1
  O  O21  2  0.006972  0.005701  0.001578  1
  O  O22  2  0.016716  0.211548  0.733678  1
  O  O23  2  0.252273  0.031952  0.741685  1
  O  O24  2  0.252378  0.204972  0.501188  1
  O  O25  2  0.260349  0.284662  0.000624  1
  O  O26  2  0.275162  0.481850  0.231750  1
  O  O27  2  0.476444  0.257134  0.249315  1
  O  O28  2  0.498411  0.487628  0.995341  1
  O  O29  2  0.524890  0.012037  0.499943  1
  O  O30  2  0.538150  0.233384  0.754489  1
  O  O31  2  0.739455  0.209151  0.000150  1
  O  O32  2  0.747165  0.001177  0.264214  1
  O  O33  2  0.749519  0.495008  0.766269  1
  O  O34  2  0.758352  0.289162  0.497749  1
  O  O35  2  0.955303  0.278439  0.258286  1
  O  O36  2  0.969481  0.493970  0.014334  1
