# generated using pymatgen
data_Li4Co3O7
_symmetry_space_group_name_H-M   P-1
_cell_length_a   2.87252278
_cell_length_b   8.32099463
_cell_length_c   10.54088021
_cell_angle_alpha   78.19333683
_cell_angle_beta   84.17062597
_cell_angle_gamma   89.02584948
_symmetry_Int_Tables_number   2
_chemical_formula_structural   Li4Co3O7
_chemical_formula_sum   'Li8 Co6 O14'
_cell_volume   245.34316935
_cell_formula_units_Z   2
loop_
 _symmetry_equiv_pos_site_id
 _symmetry_equiv_pos_as_xyz
  1  'x, y, z'
  2  '-x, -y, -z'
loop_
 _atom_site_type_symbol
 _atom_site_label
 _atom_site_symmetry_multiplicity
 _atom_site_fract_x
 _atom_site_fract_y
 _atom_site_fract_z
 _atom_site_occupancy
  Li  Li1  2  0.130343  0.574216  0.720231  1
  Li  Li2  2  0.284004  0.144112  0.430304  1
  Li  Li3  2  0.431809  0.699573  0.137744  1
  Li  Li4  1  0.000000  0.000000  0.000000  1
  Li  Li5  1  0.000000  0.500000  0.000000  1
  Co  Co6  2  0.138987  0.067515  0.717546  1
  Co  Co7  2  0.287550  0.642733  0.425314  1
  Co  Co8  2  0.425575  0.225482  0.139318  1
  O  O9  2  0.015559  0.754931  0.983113  1
  O  O10  2  0.122817  0.317464  0.711683  1
  O  O11  2  0.124004  0.819153  0.731757  1
  O  O12  2  0.275590  0.895286  0.417874  1
  O  O13  2  0.297266  0.391197  0.440052  1
  O  O14  2  0.429571  0.439633  0.143908  1
  O  O15  2  0.442442  0.981050  0.148890  1
