# generated using pymatgen
data_Li4Co3O7
_symmetry_space_group_name_H-M   P-1
_cell_length_a   5.07191724
_cell_length_b   5.86733827
_cell_length_c   8.66449203
_cell_angle_alpha   91.32802692
_cell_angle_beta   95.19417466
_cell_angle_gamma   106.61957219
_symmetry_Int_Tables_number   2
_chemical_formula_structural   Li4Co3O7
_chemical_formula_sum   'Li8 Co6 O14'
_cell_volume   245.73210259
_cell_formula_units_Z   2
loop_
 _symmetry_equiv_pos_site_id
 _symmetry_equiv_pos_as_xyz
  1  'x, y, z'
  2  '-x, -y, -z'
loop_
 _atom_site_type_symbol
 _atom_site_label
 _atom_site_symmetry_multiplicity
 _atom_site_fract_x
 _atom_site_fract_y
 _atom_site_fract_z
 _atom_site_occupancy
  Li  Li1  2  0.078231  0.645173  0.140330  1
  Li  Li2  2  0.213939  0.928166  0.426377  1
  Li  Li3  2  0.356517  0.211758  0.716525  1
  Li  Li4  1  0.500000  0.000000  0.000000  1
  Li  Li5  1  0.500000  0.500000  0.000000  1
  Co  Co6  2  0.076680  0.140117  0.139436  1
  Co  Co7  2  0.213641  0.431489  0.429802  1
  Co  Co8  2  0.358677  0.717277  0.721843  1
  O  O9  2  0.056509  0.880346  0.656769  1
  O  O10  2  0.073677  0.398059  0.635976  1
  O  O11  2  0.182029  0.157382  0.940397  1
  O  O12  2  0.196388  0.692819  0.912595  1
  O  O13  2  0.338716  0.988059  0.212352  1
  O  O14  2  0.347749  0.443578  0.210246  1
  O  O15  2  0.488164  0.736360  0.501862  1
