# generated using pymatgen
data_Li4CoO4
_symmetry_space_group_name_H-M   Pm
_cell_length_a   7.49565894
_cell_length_b   6.60487013
_cell_length_c   8.05750946
_cell_angle_alpha   90.00000000
_cell_angle_beta   90.39208097
_cell_angle_gamma   90.00000000
_symmetry_Int_Tables_number   6
_chemical_formula_structural   Li4CoO4
_chemical_formula_sum   'Li16 Co4 O16'
_cell_volume   398.90066050
_cell_formula_units_Z   4
loop_
 _symmetry_equiv_pos_site_id
 _symmetry_equiv_pos_as_xyz
  1  'x, y, z'
  2  'x, -y, z'
loop_
 _atom_site_type_symbol
 _atom_site_label
 _atom_site_symmetry_multiplicity
 _atom_site_fract_x
 _atom_site_fract_y
 _atom_site_fract_z
 _atom_site_occupancy
  Li  Li1  2  0.027046  0.249154  0.151288  1
  Li  Li2  2  0.488126  0.250205  0.660584  1
  Li  Li3  2  0.531348  0.259388  0.334582  1
  Li  Li4  2  0.983941  0.253690  0.834287  1
  Li  Li5  2  0.992908  0.264937  0.491419  1
  Li  Li6  1  0.236084  0.500000  0.703274  1
  Li  Li7  1  0.250866  0.000000  0.556567  1
  Li  Li8  1  0.304635  0.500000  0.034618  1
  Li  Li9  1  0.682795  0.500000  0.990731  1
  Li  Li10  1  0.708822  0.000000  0.819774  1
  Li  Li11  1  0.748163  0.000000  0.436941  1
  Co  Co12  1  0.240144  0.000000  0.872419  1
  Co  Co13  1  0.262618  0.500000  0.377450  1
  Co  Co14  1  0.736891  0.500000  0.632372  1
  Co  Co15  1  0.766601  0.000000  0.127110  1
  O  O16  2  0.201583  0.241274  0.969073  1
  O  O17  2  0.280605  0.283784  0.513762  1
  O  O18  2  0.710092  0.264405  0.522657  1
  O  O19  2  0.794344  0.219522  0.995536  1
  O  O20  1  0.043280  0.500000  0.289418  1
  O  O21  1  0.047597  0.000000  0.714260  1
  O  O22  1  0.444343  0.500000  0.232820  1
  O  O23  1  0.447584  0.000000  0.758703  1
  O  O24  1  0.548086  0.500000  0.774303  1
  O  O25  1  0.572569  0.000000  0.250782  1
  O  O26  1  0.951733  0.000000  0.283157  1
  O  O27  1  0.968421  0.500000  0.698922  1
