# generated using pymatgen
data_Li4Co3O7
_symmetry_space_group_name_H-M   C2/m
_cell_length_a   5.09720299
_cell_length_b   20.33901551
_cell_length_c   5.16209688
_cell_angle_alpha   90.00000000
_cell_angle_beta   109.80073638
_cell_angle_gamma   90.00000000
_symmetry_Int_Tables_number   12
_chemical_formula_structural   Li4Co3O7
_chemical_formula_sum   'Li16 Co12 O28'
_cell_volume   503.52447976
_cell_formula_units_Z   4
loop_
 _symmetry_equiv_pos_site_id
 _symmetry_equiv_pos_as_xyz
  1  'x, y, z'
  2  '-x, -y, -z'
  3  '-x, y, -z'
  4  'x, -y, z'
  5  'x+1/2, y+1/2, z'
  6  '-x+1/2, -y+1/2, -z'
  7  '-x+1/2, y+1/2, -z'
  8  'x+1/2, -y+1/2, z'
loop_
 _atom_site_type_symbol
 _atom_site_label
 _atom_site_symmetry_multiplicity
 _atom_site_fract_x
 _atom_site_fract_y
 _atom_site_fract_z
 _atom_site_occupancy
  Li  Li1  4  0.000000  0.143237  0.500000  1
  Li  Li2  4  0.000000  0.286311  0.500000  1
  Li  Li3  4  0.000000  0.431231  0.500000  1
  Li  Li4  2  0.000000  0.000000  0.500000  1
  Li  Li5  2  0.000000  0.500000  0.000000  1
  Co  Co6  4  0.000000  0.070078  0.000000  1
  Co  Co7  4  0.000000  0.214816  0.000000  1
  Co  Co8  4  0.000000  0.360337  0.000000  1
  O  O9  8  0.235897  0.285778  0.226391  1
  O  O10  8  0.240017  0.143098  0.229950  1
  O  O11  8  0.245455  0.076067  0.774640  1
  O  O12  4  0.223107  0.000000  0.233988  1
