# generated using pymatgen
data_Li4Co3O7
_symmetry_space_group_name_H-M   C2/m
_cell_length_a   12.37812256
_cell_length_b   3.01957024
_cell_length_c   14.28671761
_cell_angle_alpha   90.00000000
_cell_angle_beta   108.66659298
_cell_angle_gamma   90.00000000
_symmetry_Int_Tables_number   12
_chemical_formula_structural   Li4Co3O7
_chemical_formula_sum   'Li16 Co12 O28'
_cell_volume   505.89968108
_cell_formula_units_Z   4
loop_
 _symmetry_equiv_pos_site_id
 _symmetry_equiv_pos_as_xyz
  1  'x, y, z'
  2  '-x, -y, -z'
  3  '-x, y, -z'
  4  'x, -y, z'
  5  'x+1/2, y+1/2, z'
  6  '-x+1/2, -y+1/2, -z'
  7  '-x+1/2, y+1/2, -z'
  8  'x+1/2, -y+1/2, z'
loop_
 _atom_site_type_symbol
 _atom_site_label
 _atom_site_symmetry_multiplicity
 _atom_site_fract_x
 _atom_site_fract_y
 _atom_site_fract_z
 _atom_site_occupancy
  Li  Li1  4  0.071632  0.500000  0.355668  1
  Li  Li2  4  0.139626  0.000000  0.214020  1
  Li  Li3  4  0.212481  0.500000  0.068191  1
  Li  Li4  2  0.000000  0.000000  0.000000  1
  Li  Li5  2  0.000000  0.000000  0.500000  1
  Co  Co6  4  0.070486  0.500000  0.864645  1
  Co  Co7  4  0.140841  0.000000  0.715918  1
  Co  Co8  4  0.214049  0.500000  0.572204  1
  O  O9  4  0.008373  0.000000  0.753340  1
  O  O10  4  0.058763  0.500000  0.112202  1
  O  O11  4  0.079319  0.500000  0.610134  1
  O  O12  4  0.136726  0.000000  0.955637  1
  O  O13  4  0.151555  0.000000  0.466985  1
  O  O14  4  0.200790  0.500000  0.820815  1
  O  O15  4  0.223637  0.500000  0.322534  1
