# generated using pymatgen
data_Li4Co3O7
_symmetry_space_group_name_H-M   P-1
_cell_length_a   3.00973331
_cell_length_b   9.75839386
_cell_length_c   9.78340885
_cell_angle_alpha   117.08087901
_cell_angle_beta   91.27949345
_cell_angle_gamma   97.66899987
_symmetry_Int_Tables_number   2
_chemical_formula_structural   Li4Co3O7
_chemical_formula_sum   'Li8 Co6 O14'
_cell_volume   252.42299057
_cell_formula_units_Z   2
loop_
 _symmetry_equiv_pos_site_id
 _symmetry_equiv_pos_as_xyz
  1  'x, y, z'
  2  '-x, -y, -z'
loop_
 _atom_site_type_symbol
 _atom_site_label
 _atom_site_symmetry_multiplicity
 _atom_site_fract_x
 _atom_site_fract_y
 _atom_site_fract_z
 _atom_site_occupancy
  Li  Li1  2  0.140107  0.280182  0.070947  1
  Li  Li2  2  0.282530  0.574152  0.643775  1
  Li  Li3  2  0.430057  0.860266  0.217687  1
  Li  Li4  1  0.000000  0.000000  0.500000  1
  Li  Li5  1  0.500000  0.000000  0.000000  1
  Co  Co6  2  0.068070  0.138917  0.274531  1
  Co  Co7  2  0.212141  0.427553  0.856416  1
  Co  Co8  2  0.363053  0.717271  0.433003  1
  O  O9  2  0.026530  0.050871  0.872366  1
  O  O10  2  0.110657  0.224613  0.680092  1
  O  O11  2  0.159120  0.338202  0.454144  1
  O  O12  2  0.261369  0.513735  0.256026  1
  O  O13  2  0.311612  0.633336  0.032573  1
  O  O14  2  0.363671  0.792323  0.813354  1
  O  O15  2  0.498175  0.915042  0.605644  1
