# generated using pymatgen
data_Li4Co3O7
_symmetry_space_group_name_H-M   P-1
_cell_length_a   2.98618669
_cell_length_b   5.07164163
_cell_length_c   16.97811668
_cell_angle_alpha   85.12721690
_cell_angle_beta   88.25625801
_cell_angle_gamma   75.39895982
_symmetry_Int_Tables_number   2
_chemical_formula_structural   Li4Co3O7
_chemical_formula_sum   'Li8 Co6 O14'
_cell_volume   247.91702657
_cell_formula_units_Z   2
loop_
 _symmetry_equiv_pos_site_id
 _symmetry_equiv_pos_as_xyz
  1  'x, y, z'
  2  '-x, -y, -z'
loop_
 _atom_site_type_symbol
 _atom_site_label
 _atom_site_symmetry_multiplicity
 _atom_site_fract_x
 _atom_site_fract_y
 _atom_site_fract_z
 _atom_site_occupancy
  Li  Li1  2  0.067985  0.359197  0.642581  1
  Li  Li2  2  0.206180  0.084531  0.928490  1
  Li  Li3  2  0.350505  0.783570  0.213559  1
  Li  Li4  1  0.500000  0.500000  0.000000  1
  Li  Li5  1  0.500000  0.500000  0.500000  1
  Co  Co6  2  0.067815  0.358721  0.137002  1
  Co  Co7  2  0.220429  0.073133  0.427607  1
  Co  Co8  2  0.345480  0.786160  0.715283  1
  O  O9  2  0.011291  0.530113  0.755762  1
  O  O10  2  0.144147  0.214677  0.046375  1
  O  O11  2  0.150142  0.201372  0.532231  1
  O  O12  2  0.268261  0.907846  0.817772  1
  O  O13  2  0.328733  0.941741  0.322970  1
  O  O14  2  0.404215  0.617124  0.110093  1
  O  O15  2  0.405175  0.658207  0.611849  1
