# generated using pymatgen
data_Li4CoO4
_symmetry_space_group_name_H-M   Pc
_cell_length_a   9.21117074
_cell_length_b   5.25848506
_cell_length_c   15.98984374
_cell_angle_alpha   90.00000000
_cell_angle_beta   91.97330776
_cell_angle_gamma   90.00000000
_symmetry_Int_Tables_number   7
_chemical_formula_structural   Li4CoO4
_chemical_formula_sum   'Li32 Co8 O32'
_cell_volume   774.03762827
_cell_formula_units_Z   8
loop_
 _symmetry_equiv_pos_site_id
 _symmetry_equiv_pos_as_xyz
  1  'x, y, z'
  2  'x, -y, z+1/2'
loop_
 _atom_site_type_symbol
 _atom_site_label
 _atom_site_symmetry_multiplicity
 _atom_site_fract_x
 _atom_site_fract_y
 _atom_site_fract_z
 _atom_site_occupancy
  Li  Li1  2  0.018979  0.333008  0.948072  1
  Li  Li2  2  0.054691  0.202168  0.758288  1
  Li  Li3  2  0.142742  0.140527  0.505472  1
  Li  Li4  2  0.160889  0.352346  0.329032  1
  Li  Li5  2  0.193935  0.163422  0.148685  1
  Li  Li6  2  0.298799  0.308487  0.640124  1
  Li  Li7  2  0.317630  0.133074  0.824644  1
  Li  Li8  2  0.323452  0.362490  0.997517  1
  Li  Li9  2  0.417931  0.354653  0.253987  1
  Li  Li10  2  0.452929  0.183463  0.445317  1
  Li  Li11  2  0.612727  0.115441  0.757147  1
  Li  Li12  2  0.640096  0.377057  0.587007  1
  Li  Li13  2  0.720262  0.196162  0.016503  1
  Li  Li14  2  0.751284  0.300113  0.215302  1
  Li  Li15  2  0.806340  0.358223  0.838377  1
  Li  Li16  2  0.847958  0.095408  0.648564  1
  Co  Co17  2  0.031169  0.443018  0.623287  1
  Co  Co18  2  0.463689  0.099803  0.116497  1
  Co  Co19  2  0.535469  0.401282  0.879241  1
  Co  Co20  2  0.934970  0.089679  0.364081  1
  O  O21  2  0.055489  0.098183  0.626772  1
  O  O22  2  0.126186  0.024806  0.859330  1
  O  O23  2  0.136938  0.468282  0.035333  1
  O  O24  2  0.151916  0.474086  0.212667  1
  O  O25  2  0.343599  0.017153  0.533270  1
  O  O26  2  0.348714  0.473512  0.373748  1
  O  O27  2  0.372621  0.007665  0.709976  1
  O  O28  2  0.445225  0.438466  0.120475  1
  O  O29  2  0.518708  0.063138  0.869602  1
  O  O30  2  0.613980  0.494553  0.475022  1
  O  O31  2  0.624816  0.494947  0.784301  1
  O  O32  2  0.651185  0.001944  0.118973  1
  O  O33  2  0.840266  0.035697  0.770448  1
  O  O34  2  0.840819  0.494772  0.629899  1
  O  O35  2  0.870202  0.077487  0.950734  1
  O  O36  2  0.961970  0.427017  0.365129  1
