# generated using pymatgen
data_Li4Co3O7
_symmetry_space_group_name_H-M   P-1
_cell_length_a   2.94542219
_cell_length_b   5.90500368
_cell_length_c   14.54983956
_cell_angle_alpha   96.08656658
_cell_angle_beta   95.67181859
_cell_angle_gamma   91.43738671
_symmetry_Int_Tables_number   2
_chemical_formula_structural   Li4Co3O7
_chemical_formula_sum   'Li8 Co6 O14'
_cell_volume   250.24115305
_cell_formula_units_Z   2
loop_
 _symmetry_equiv_pos_site_id
 _symmetry_equiv_pos_as_xyz
  1  'x, y, z'
  2  '-x, -y, -z'
loop_
 _atom_site_type_symbol
 _atom_site_label
 _atom_site_symmetry_multiplicity
 _atom_site_fract_x
 _atom_site_fract_y
 _atom_site_fract_z
 _atom_site_occupancy
  Li  Li1  2  0.070475  0.790255  0.138400  1
  Li  Li2  2  0.214378  0.357709  0.429347  1
  Li  Li3  2  0.356205  0.927851  0.715786  1
  Li  Li4  1  0.500000  0.000000  0.000000  1
  Li  Li5  1  0.500000  0.500000  0.000000  1
  Co  Co6  2  0.065785  0.275421  0.134541  1
  Co  Co7  2  0.213712  0.854924  0.428249  1
  Co  Co8  2  0.357028  0.429836  0.717191  1
  O  O9  2  0.005322  0.254836  0.013570  1
  O  O10  2  0.130492  0.335441  0.275103  1
  O  O11  2  0.146166  0.803648  0.288353  1
  O  O12  2  0.279869  0.907025  0.568552  1
  O  O13  2  0.293416  0.381214  0.575122  1
  O  O14  2  0.394672  0.944607  0.856464  1
  O  O15  2  0.468174  0.480567  0.855394  1
