# generated using pymatgen
data_Li4Co7O16
_symmetry_space_group_name_H-M   P2_1
_cell_length_a   8.04508663
_cell_length_b   8.10579498
_cell_length_c   8.09718460
_cell_angle_alpha   90.00000000
_cell_angle_beta   90.36207505
_cell_angle_gamma   90.00000000
_symmetry_Int_Tables_number   4
_chemical_formula_structural   Li4Co7O16
_chemical_formula_sum   'Li8 Co14 O32'
_cell_volume   528.02162388
_cell_formula_units_Z   2
loop_
 _symmetry_equiv_pos_site_id
 _symmetry_equiv_pos_as_xyz
  1  'x, y, z'
  2  '-x, y+1/2, -z'
loop_
 _atom_site_type_symbol
 _atom_site_label
 _atom_site_symmetry_multiplicity
 _atom_site_fract_x
 _atom_site_fract_y
 _atom_site_fract_z
 _atom_site_occupancy
  Li  Li1  2  0.000476  0.248001  0.749402  1
  Li  Li2  2  0.254472  0.001879  0.499122  1
  Li  Li3  2  0.379013  0.627370  0.376213  1
  Li  Li4  2  0.496668  0.751925  0.744962  1
  Co  Co5  2  0.123020  0.623266  0.624991  1
  Co  Co6  2  0.127393  0.373057  0.380413  1
  Co  Co7  2  0.129439  0.120952  0.123642  1
  Co  Co8  2  0.245322  0.500647  0.007324  1
  Co  Co9  2  0.372308  0.369745  0.631986  1
  Co  Co10  2  0.372524  0.125344  0.882665  1
  Co  Co11  2  0.372555  0.881914  0.120501  1
  O  O12  2  0.100985  0.843448  0.613686  1
  O  O13  2  0.105088  0.609400  0.859257  1
  O  O14  2  0.111706  0.138769  0.357622  1
  O  O15  2  0.112746  0.596180  0.399118  1
  O  O16  2  0.136021  0.386914  0.614166  1
  O  O17  2  0.137515  0.359320  0.144989  1
  O  O18  2  0.149096  0.137535  0.904417  1
  O  O19  2  0.151484  0.900416  0.136417  1
  O  O20  2  0.345859  0.604252  0.629727  1
  O  O21  2  0.351205  0.369385  0.401014  1
  O  O22  2  0.364804  0.113154  0.116172  1
  O  O23  2  0.367267  0.146362  0.651904  1
  O  O24  2  0.384719  0.906072  0.897497  1
  O  O25  2  0.386572  0.645910  0.117312  1
  O  O26  2  0.387503  0.363970  0.870455  1
  O  O27  2  0.404550  0.879972  0.351438  1
