# generated using pymatgen
data_Li4Co3O7
_symmetry_space_group_name_H-M   P-1
_cell_length_a   5.10216156
_cell_length_b   7.67889642
_cell_length_c   7.68966949
_cell_angle_alpha   60.50875219
_cell_angle_beta   71.31139684
_cell_angle_gamma   77.88420709
_symmetry_Int_Tables_number   2
_chemical_formula_structural   Li4Co3O7
_chemical_formula_sum   'Li8 Co6 O14'
_cell_volume   247.91360926
_cell_formula_units_Z   2
loop_
 _symmetry_equiv_pos_site_id
 _symmetry_equiv_pos_as_xyz
  1  'x, y, z'
  2  '-x, -y, -z'
loop_
 _atom_site_type_symbol
 _atom_site_label
 _atom_site_symmetry_multiplicity
 _atom_site_fract_x
 _atom_site_fract_y
 _atom_site_fract_z
 _atom_site_occupancy
  Li  Li1  2  0.490372  0.787901  0.639275  1
  Li  Li2  2  0.495268  0.930704  0.218233  1
  Li  Li3  2  0.499632  0.639753  0.074221  1
  Li  Li4  1  0.000000  0.000000  0.500000  1
  Li  Li5  1  0.500000  0.500000  0.500000  1
  Co  Co6  2  0.002844  0.718554  0.363936  1
  Co  Co7  2  0.006637  0.423995  0.216416  1
  Co  Co8  2  0.006654  0.859200  0.925490  1
  O  O9  2  0.208574  0.317429  0.804124  1
  O  O10  2  0.216361  0.904508  0.067419  1
  O  O11  2  0.216822  0.188872  0.196333  1
  O  O12  2  0.227801  0.621766  0.930430  1
  O  O13  2  0.228522  0.025233  0.669723  1
  O  O14  2  0.238302  0.742028  0.495324  1
  O  O15  2  0.240448  0.457871  0.361205  1
