# generated using pymatgen
data_Li4Co3O7
_symmetry_space_group_name_H-M   P-1
_cell_length_a   5.08545779
_cell_length_b   5.13142166
_cell_length_c   10.33392451
_cell_angle_alpha   84.96673010
_cell_angle_beta   76.61225858
_cell_angle_gamma   70.44622436
_symmetry_Int_Tables_number   2
_chemical_formula_structural   Li4Co3O7
_chemical_formula_sum   'Li8 Co6 O14'
_cell_volume   247.19680848
_cell_formula_units_Z   2
loop_
 _symmetry_equiv_pos_site_id
 _symmetry_equiv_pos_as_xyz
  1  'x, y, z'
  2  '-x, -y, -z'
loop_
 _atom_site_type_symbol
 _atom_site_label
 _atom_site_symmetry_multiplicity
 _atom_site_fract_x
 _atom_site_fract_y
 _atom_site_fract_z
 _atom_site_occupancy
  Li  Li1  2  0.142339  0.501360  0.214880  1
  Li  Li2  2  0.283779  0.499390  0.930996  1
  Li  Li3  2  0.428140  0.501984  0.640966  1
  Li  Li4  1  0.000000  0.500000  0.500000  1
  Li  Li5  1  0.500000  0.000000  0.500000  1
  Co  Co6  2  0.075510  0.000329  0.361109  1
  Co  Co7  2  0.213723  0.000607  0.069645  1
  Co  Co8  2  0.359846  0.004510  0.778086  1
  O  O9  2  0.039257  0.236352  0.933837  1
  O  O10  2  0.092401  0.776855  0.777623  1
  O  O11  2  0.166771  0.219073  0.649605  1
  O  O12  2  0.215926  0.777612  0.498373  1
  O  O13  2  0.304547  0.221789  0.352841  1
  O  O14  2  0.376970  0.772871  0.223247  1
  O  O15  2  0.480526  0.229703  0.070665  1
