# generated using pymatgen
data_Li4Co3O7
_symmetry_space_group_name_H-M   C2/m
_cell_length_a   15.40758540
_cell_length_b   2.91648344
_cell_length_c   12.63316907
_cell_angle_alpha   90.00000000
_cell_angle_beta   118.41715213
_cell_angle_gamma   90.00000000
_symmetry_Int_Tables_number   12
_chemical_formula_structural   Li4Co3O7
_chemical_formula_sum   'Li16 Co12 O28'
_cell_volume   499.28128451
_cell_formula_units_Z   4
loop_
 _symmetry_equiv_pos_site_id
 _symmetry_equiv_pos_as_xyz
  1  'x, y, z'
  2  '-x, -y, -z'
  3  '-x, y, -z'
  4  'x, -y, z'
  5  'x+1/2, y+1/2, z'
  6  '-x+1/2, -y+1/2, -z'
  7  '-x+1/2, y+1/2, -z'
  8  'x+1/2, -y+1/2, z'
loop_
 _atom_site_type_symbol
 _atom_site_label
 _atom_site_symmetry_multiplicity
 _atom_site_fract_x
 _atom_site_fract_y
 _atom_site_fract_z
 _atom_site_occupancy
  Li  Li1  4  0.070769  0.000000  0.354367  1
  Li  Li2  4  0.139866  0.500000  0.210869  1
  Li  Li3  4  0.213123  0.000000  0.067674  1
  Li  Li4  2  0.000000  0.000000  0.000000  1
  Li  Li5  2  0.000000  0.500000  0.500000  1
  Co  Co6  4  0.069591  0.500000  0.865231  1
  Co  Co7  4  0.145763  0.000000  0.718974  1
  Co  Co8  4  0.214304  0.500000  0.572509  1
  O  O9  4  0.027663  0.000000  0.175328  1
  O  O10  4  0.044522  0.500000  0.697707  1
  O  O11  4  0.103833  0.500000  0.016389  1
  O  O12  4  0.111612  0.000000  0.541476  1
  O  O13  4  0.169653  0.000000  0.888215  1
  O  O14  4  0.185347  0.500000  0.397347  1
  O  O15  4  0.246130  0.500000  0.749191  1
