# generated using pymatgen
data_Li4Co13O28
_symmetry_space_group_name_H-M   P1
_cell_length_a   7.44741165
_cell_length_b   8.22592541
_cell_length_c   8.51550195
_cell_angle_alpha   100.70836162
_cell_angle_beta   104.53278603
_cell_angle_gamma   105.47353764
_symmetry_Int_Tables_number   1
_chemical_formula_structural   Li4Co13O28
_chemical_formula_sum   'Li4 Co13 O28'
_cell_volume   468.47763128
_cell_formula_units_Z   1
loop_
 _symmetry_equiv_pos_site_id
 _symmetry_equiv_pos_as_xyz
  1  'x, y, z'
loop_
 _atom_site_type_symbol
 _atom_site_label
 _atom_site_symmetry_multiplicity
 _atom_site_fract_x
 _atom_site_fract_y
 _atom_site_fract_z
 _atom_site_occupancy
  Li  Li1  1  0.080910  0.732814  0.793703  1
  Li  Li2  1  0.197909  0.146282  0.328667  1
  Li  Li3  1  0.778028  0.864661  0.652716  1
  Li  Li4  1  0.998478  0.494681  0.010118  1
  Co  Co5  1  0.071681  0.209028  0.790495  1
  Co  Co6  1  0.144265  0.431268  0.574052  1
  Co  Co7  1  0.221084  0.653288  0.364442  1
  Co  Co8  1  0.285768  0.861954  0.142520  1
  Co  Co9  1  0.356341  0.076837  0.936599  1
  Co  Co10  1  0.430804  0.294435  0.721621  1
  Co  Co11  1  0.501002  0.501268  0.501274  1
  Co  Co12  1  0.568940  0.705467  0.277645  1
  Co  Co13  1  0.646253  0.924684  0.068092  1
  Co  Co14  1  0.717528  0.140221  0.862652  1
  Co  Co15  1  0.778598  0.348055  0.636138  1
  Co  Co16  1  0.852773  0.562796  0.420829  1
  Co  Co17  1  0.929255  0.787290  0.206438  1
  O  O18  1  0.024034  0.753181  0.027755  1
  O  O19  1  0.049991  0.434702  0.763622  1
  O  O20  1  0.093477  0.996743  0.797420  1
  O  O21  1  0.125165  0.651825  0.552719  1
  O  O22  1  0.160855  0.212848  0.596516  1
  O  O23  1  0.202062  0.871239  0.336487  1
  O  O24  1  0.229513  0.425282  0.383971  1
  O  O25  1  0.295396  0.635178  0.169270  1
  O  O26  1  0.296302  0.080079  0.133151  1
  O  O27  1  0.342501  0.297306  0.910426  1
  O  O28  1  0.366826  0.851781  0.947954  1
  O  O29  1  0.412156  0.510784  0.691773  1
  O  O30  1  0.443387  0.074832  0.745191  1
  O  O31  1  0.495218  0.724740  0.477045  1
  O  O32  1  0.507200  0.277481  0.524182  1
  O  O33  1  0.559807  0.926251  0.255191  1
  O  O34  1  0.586158  0.488419  0.308382  1
  O  O35  1  0.631457  0.148141  0.049682  1
  O  O36  1  0.655925  0.702828  0.087507  1
  O  O37  1  0.705568  0.921603  0.867446  1
  O  O38  1  0.706034  0.365690  0.833997  1
  O  O39  1  0.778542  0.578466  0.619679  1
  O  O40  1  0.796088  0.126629  0.665172  1
  O  O41  1  0.839506  0.784190  0.400768  1
  O  O42  1  0.870740  0.345210  0.451427  1
  O  O43  1  0.905423  0.996141  0.199230  1
  O  O44  1  0.951185  0.565658  0.237411  1
  O  O45  1  0.980533  0.242964  0.967448  1
