# generated using pymatgen
data_Li4Co3O7
_symmetry_space_group_name_H-M   P-1
_cell_length_a   5.10103722
_cell_length_b   5.14855293
_cell_length_c   10.01526786
_cell_angle_alpha   99.28825530
_cell_angle_beta   101.60609116
_cell_angle_gamma   99.61306557
_symmetry_Int_Tables_number   2
_chemical_formula_structural   Li4Co3O7
_chemical_formula_sum   'Li8 Co6 O14'
_cell_volume   248.80295239
_cell_formula_units_Z   2
loop_
 _symmetry_equiv_pos_site_id
 _symmetry_equiv_pos_as_xyz
  1  'x, y, z'
  2  '-x, -y, -z'
loop_
 _atom_site_type_symbol
 _atom_site_label
 _atom_site_symmetry_multiplicity
 _atom_site_fract_x
 _atom_site_fract_y
 _atom_site_fract_z
 _atom_site_occupancy
  Li  Li1  2  0.150194  0.786990  0.285499  1
  Li  Li2  2  0.283343  0.083128  0.570104  1
  Li  Li3  2  0.430735  0.365861  0.858740  1
  Li  Li4  1  0.000000  0.500000  0.000000  1
  Li  Li5  1  0.000000  0.500000  0.500000  1
  Co  Co6  2  0.141492  0.778995  0.777159  1
  Co  Co7  2  0.284698  0.074352  0.069416  1
  Co  Co8  2  0.434930  0.363012  0.361164  1
  O  O9  2  0.078694  0.138248  0.900997  1
  O  O10  2  0.088191  0.155202  0.382335  1
  O  O11  2  0.221212  0.416554  0.192063  1
  O  O12  2  0.248961  0.453608  0.677297  1
  O  O13  2  0.350598  0.731340  0.959912  1
  O  O14  2  0.380312  0.687341  0.469049  1
  O  O15  2  0.495005  0.034843  0.253773  1
