# generated using pymatgen
data_Li4Mn3O7
_symmetry_space_group_name_H-M   P-1
_cell_length_a   5.08133935
_cell_length_b   6.94475759
_cell_length_c   7.72752213
_cell_angle_alpha   83.24305815
_cell_angle_beta   75.98541453
_cell_angle_gamma   79.19327038
_symmetry_Int_Tables_number   2
_chemical_formula_structural   Li4Mn3O7
_chemical_formula_sum   'Li8 Mn6 O14'
_cell_volume   259.13685410
_cell_formula_units_Z   2
loop_
 _symmetry_equiv_pos_site_id
 _symmetry_equiv_pos_as_xyz
  1  'x, y, z'
  2  '-x, -y, -z'
loop_
 _atom_site_type_symbol
 _atom_site_label
 _atom_site_symmetry_multiplicity
 _atom_site_fract_x
 _atom_site_fract_y
 _atom_site_fract_z
 _atom_site_occupancy
  Li  Li1  2  0.163586  0.238079  0.713099  1
  Li  Li2  2  0.295114  0.935412  0.430030  1
  Li  Li3  2  0.432417  0.640039  0.151227  1
  Li  Li4  1  0.000000  0.500000  0.000000  1
  Li  Li5  1  0.500000  0.500000  0.500000  1
  Mn  Mn6  2  0.070071  0.369065  0.360038  1
  Mn  Mn7  2  0.215766  0.072856  0.073268  1
  Mn  Mn8  2  0.355428  0.771850  0.779801  1
  O  O9  2  0.026564  0.890165  0.681371  1
  O  O10  2  0.101122  0.794130  0.017888  1
  O  O11  2  0.153325  0.619669  0.400472  1
  O  O12  2  0.226499  0.504681  0.742996  1
  O  O13  2  0.327376  0.360048  0.126349  1
  O  O14  2  0.388377  0.217472  0.449035  1
  O  O15  2  0.471611  0.072342  0.835155  1
