# generated using pymatgen
data_Li4Mn3O7
_symmetry_space_group_name_H-M   C2/m
_cell_length_a   5.33274942
_cell_length_b   20.10618230
_cell_length_c   5.27936395
_cell_angle_alpha   90.00000000
_cell_angle_beta   113.26058021
_cell_angle_gamma   90.00000000
_symmetry_Int_Tables_number   12
_chemical_formula_structural   Li4Mn3O7
_chemical_formula_sum   'Li16 Mn12 O28'
_cell_volume   520.04959543
_cell_formula_units_Z   4
loop_
 _symmetry_equiv_pos_site_id
 _symmetry_equiv_pos_as_xyz
  1  'x, y, z'
  2  '-x, -y, -z'
  3  '-x, y, -z'
  4  'x, -y, z'
  5  'x+1/2, y+1/2, z'
  6  '-x+1/2, -y+1/2, -z'
  7  '-x+1/2, y+1/2, -z'
  8  'x+1/2, -y+1/2, z'
loop_
 _atom_site_type_symbol
 _atom_site_label
 _atom_site_symmetry_multiplicity
 _atom_site_fract_x
 _atom_site_fract_y
 _atom_site_fract_z
 _atom_site_occupancy
  Li  Li1  4  0.000000  0.141481  0.500000  1
  Li  Li2  4  0.000000  0.284426  0.500000  1
  Li  Li3  4  0.000000  0.430585  0.500000  1
  Li  Li4  2  0.000000  0.000000  0.500000  1
  Li  Li5  2  0.000000  0.500000  0.000000  1
  Mn  Mn6  4  0.000000  0.070667  0.000000  1
  Mn  Mn7  4  0.000000  0.213961  0.000000  1
  Mn  Mn8  4  0.000000  0.359001  0.000000  1
  O  O9  8  0.221881  0.714909  0.232780  1
  O  O10  8  0.225268  0.141033  0.235316  1
  O  O11  8  0.236652  0.074350  0.791005  1
  O  O12  4  0.219967  0.000000  0.235835  1
