# generated using pymatgen
data_Li4Mn3O7
_symmetry_space_group_name_H-M   P-1
_cell_length_a   5.09850645
_cell_length_b   5.83026897
_cell_length_c   9.28922813
_cell_angle_alpha   89.93663238
_cell_angle_beta   81.01229828
_cell_angle_gamma   72.80691812
_symmetry_Int_Tables_number   2
_chemical_formula_structural   Li4Mn3O7
_chemical_formula_sum   'Li8 Mn6 O14'
_cell_volume   260.25316165
_cell_formula_units_Z   2
loop_
 _symmetry_equiv_pos_site_id
 _symmetry_equiv_pos_as_xyz
  1  'x, y, z'
  2  '-x, -y, -z'
loop_
 _atom_site_type_symbol
 _atom_site_label
 _atom_site_symmetry_multiplicity
 _atom_site_fract_x
 _atom_site_fract_y
 _atom_site_fract_z
 _atom_site_occupancy
  Li  Li1  2  0.084283  0.856296  0.368782  1
  Li  Li2  2  0.225111  0.571456  0.086683  1
  Li  Li3  2  0.361266  0.287458  0.779883  1
  Li  Li4  1  0.500000  0.000000  0.500000  1
  Li  Li5  1  0.500000  0.500000  0.500000  1
  Mn  Mn6  2  0.074625  0.355520  0.367244  1
  Mn  Mn7  2  0.218189  0.072017  0.074099  1
  Mn  Mn8  2  0.350617  0.785614  0.773130  1
  O  O9  2  0.052678  0.622406  0.832397  1
  O  O10  2  0.064757  0.085681  0.856907  1
  O  O11  2  0.184410  0.339371  0.558523  1
  O  O12  2  0.189441  0.807393  0.573550  1
  O  O13  2  0.360730  0.510278  0.284970  1
  O  O14  2  0.365503  0.055018  0.294781  1
  O  O15  2  0.495410  0.231742  0.995994  1
