# generated using pymatgen
data_Li4Mn3O7
_symmetry_space_group_name_H-M   P-1
_cell_length_a   6.50858727
_cell_length_b   6.54148844
_cell_length_c   6.92512474
_cell_angle_alpha   73.76831318
_cell_angle_beta   71.52197111
_cell_angle_gamma   72.19323544
_symmetry_Int_Tables_number   2
_chemical_formula_structural   Li4Mn3O7
_chemical_formula_sum   'Li8 Mn6 O14'
_cell_volume   260.74558658
_cell_formula_units_Z   2
loop_
 _symmetry_equiv_pos_site_id
 _symmetry_equiv_pos_as_xyz
  1  'x, y, z'
  2  '-x, -y, -z'
loop_
 _atom_site_type_symbol
 _atom_site_label
 _atom_site_symmetry_multiplicity
 _atom_site_fract_x
 _atom_site_fract_y
 _atom_site_fract_z
 _atom_site_occupancy
  Li  Li1  2  0.145376  0.074057  0.778337  1
  Li  Li2  2  0.297678  0.644485  0.074395  1
  Li  Li3  2  0.435349  0.208919  0.349098  1
  Li  Li4  1  0.000000  0.500000  0.500000  1
  Li  Li5  1  0.500000  0.000000  0.000000  1
  Mn  Mn6  2  0.078577  0.285891  0.146406  1
  Mn  Mn7  2  0.215746  0.861316  0.420076  1
  Mn  Mn8  2  0.359720  0.420634  0.722379  1
  O  O9  2  0.049274  0.402847  0.814088  1
  O  O10  2  0.098664  0.157589  0.476550  1
  O  O11  2  0.175822  0.971084  0.139671  1
  O  O12  2  0.239839  0.744342  0.721156  1
  O  O13  2  0.326385  0.563264  0.380121  1
  O  O14  2  0.374552  0.325421  0.044709  1
  O  O15  2  0.477658  0.121353  0.667511  1
