# generated using pymatgen
data_Li4Mn3O7
_symmetry_space_group_name_H-M   P-1
_cell_length_a   6.00249744
_cell_length_b   6.54957731
_cell_length_c   7.77515971
_cell_angle_alpha   65.97121550
_cell_angle_beta   70.87096610
_cell_angle_gamma   75.27654064
_symmetry_Int_Tables_number   2
_chemical_formula_structural   Li4Mn3O7
_chemical_formula_sum   'Li8 Mn6 O14'
_cell_volume   261.17265419
_cell_formula_units_Z   2
loop_
 _symmetry_equiv_pos_site_id
 _symmetry_equiv_pos_as_xyz
  1  'x, y, z'
  2  '-x, -y, -z'
loop_
 _atom_site_type_symbol
 _atom_site_label
 _atom_site_symmetry_multiplicity
 _atom_site_fract_x
 _atom_site_fract_y
 _atom_site_fract_z
 _atom_site_occupancy
  Li  Li1  2  0.068208  0.638810  0.273454  1
  Li  Li2  2  0.196503  0.915578  0.874847  1
  Li  Li3  2  0.357426  0.211598  0.428904  1
  Li  Li4  1  0.000000  0.500000  0.000000  1
  Li  Li5  1  0.500000  0.500000  0.000000  1
  Mn  Mn6  2  0.137236  0.782384  0.577200  1
  Mn  Mn7  2  0.275544  0.069352  0.142938  1
  Mn  Mn8  2  0.420564  0.359771  0.720687  1
  O  O9  2  0.044016  0.067382  0.622393  1
  O  O10  2  0.121914  0.202768  0.937314  1
  O  O11  2  0.150548  0.327084  0.232385  1
  O  O12  2  0.240720  0.506036  0.522725  1
  O  O13  2  0.325174  0.648099  0.766279  1
  O  O14  2  0.394971  0.781720  0.083834  1
  O  O15  2  0.427267  0.903910  0.367847  1
