# generated using pymatgen
data_Li4Mn3O7
_symmetry_space_group_name_H-M   P-1
_cell_length_a   5.07523706
_cell_length_b   5.08995692
_cell_length_c   10.67475149
_cell_angle_alpha   84.05468359
_cell_angle_beta   79.58359582
_cell_angle_gamma   72.71302304
_symmetry_Int_Tables_number   2
_chemical_formula_structural   Li4Mn3O7
_chemical_formula_sum   'Li8 Mn6 O14'
_cell_volume   258.59718442
_cell_formula_units_Z   2
loop_
 _symmetry_equiv_pos_site_id
 _symmetry_equiv_pos_as_xyz
  1  'x, y, z'
  2  '-x, -y, -z'
loop_
 _atom_site_type_symbol
 _atom_site_label
 _atom_site_symmetry_multiplicity
 _atom_site_fract_x
 _atom_site_fract_y
 _atom_site_fract_z
 _atom_site_occupancy
  Li  Li1  2  0.127331  0.506774  0.224202  1
  Li  Li2  2  0.276157  0.505677  0.933657  1
  Li  Li3  2  0.435510  0.502651  0.636886  1
  Li  Li4  1  0.000000  0.500000  0.500000  1
  Li  Li5  1  0.500000  0.000000  0.500000  1
  Mn  Mn6  2  0.058925  0.014586  0.364342  1
  Mn  Mn7  2  0.207795  0.004078  0.073981  1
  Mn  Mn8  2  0.375634  0.984521  0.775866  1
  O  O9  2  0.030001  0.231717  0.936833  1
  O  O10  2  0.126128  0.756831  0.772594  1
  O  O11  2  0.179153  0.219766  0.650468  1
  O  O12  2  0.213665  0.781035  0.503010  1
  O  O13  2  0.293916  0.243693  0.361270  1
  O  O14  2  0.353808  0.796617  0.228084  1
  O  O15  2  0.455538  0.232137  0.078306  1
