# generated using pymatgen
data_Li4Mn3O7
_symmetry_space_group_name_H-M   P-1
_cell_length_a   5.28452347
_cell_length_b   7.67098209
_cell_length_c   7.76887518
_cell_angle_alpha   116.16715098
_cell_angle_beta   105.81373591
_cell_angle_gamma   97.35950647
_symmetry_Int_Tables_number   2
_chemical_formula_structural   Li4Mn3O7
_chemical_formula_sum   'Li8 Mn6 O14'
_cell_volume   260.47423752
_cell_formula_units_Z   2
loop_
 _symmetry_equiv_pos_site_id
 _symmetry_equiv_pos_as_xyz
  1  'x, y, z'
  2  '-x, -y, -z'
loop_
 _atom_site_type_symbol
 _atom_site_label
 _atom_site_symmetry_multiplicity
 _atom_site_fract_x
 _atom_site_fract_y
 _atom_site_fract_z
 _atom_site_occupancy
  Li  Li1  2  0.143661  0.931768  0.659635  1
  Li  Li2  2  0.297108  0.356263  0.793844  1
  Li  Li3  2  0.449824  0.795797  0.940970  1
  Li  Li4  1  0.000000  0.000000  0.000000  1
  Li  Li5  1  0.000000  0.500000  0.500000  1
  Mn  Mn6  2  0.151712  0.424685  0.140990  1
  Mn  Mn7  2  0.277429  0.859269  0.279338  1
  Mn  Mn8  2  0.421223  0.283815  0.422847  1
  O  O9  2  0.056262  0.263276  0.262974  1
  O  O10  2  0.143764  0.193428  0.902330  1
  O  O11  2  0.195936  0.682139  0.396415  1
  O  O12  2  0.278601  0.107741  0.511140  1
  O  O13  2  0.283379  0.613782  0.048820  1
  O  O14  2  0.419458  0.531789  0.656759  1
  O  O15  2  0.438667  0.045205  0.199108  1
