# generated using pymatgen
data_Li4Mn13O24
_symmetry_space_group_name_H-M   P1
_cell_length_a   6.03020013
_cell_length_b   8.34405821
_cell_length_c   10.29110669
_cell_angle_alpha   113.56746169
_cell_angle_beta   105.44286121
_cell_angle_gamma   90.47345729
_symmetry_Int_Tables_number   1
_chemical_formula_structural   Li4Mn13O24
_chemical_formula_sum   'Li4 Mn13 O24'
_cell_volume   453.61108286
_cell_formula_units_Z   1
loop_
 _symmetry_equiv_pos_site_id
 _symmetry_equiv_pos_as_xyz
  1  'x, y, z'
loop_
 _atom_site_type_symbol
 _atom_site_label
 _atom_site_symmetry_multiplicity
 _atom_site_fract_x
 _atom_site_fract_y
 _atom_site_fract_z
 _atom_site_occupancy
  Li  Li1  1  0.075452  0.207398  0.663301  1
  Li  Li2  1  0.416299  0.543653  0.335729  1
  Li  Li3  1  0.590408  0.456879  0.667714  1
  Li  Li4  1  0.918017  0.787333  0.330479  1
  Mn  Mn5  1  0.001749  0.499296  0.000355  1
  Mn  Mn6  1  0.007654  0.501245  0.507396  1
  Mn  Mn7  1  0.167555  0.661269  0.834196  1
  Mn  Mn8  1  0.169619  0.173795  0.340588  1
  Mn  Mn9  1  0.254683  0.120588  0.999689  1
  Mn  Mn10  1  0.329864  0.825866  0.164436  1
  Mn  Mn11  1  0.330585  0.832227  0.658529  1
  Mn  Mn12  1  0.487203  0.990619  0.489083  1
  Mn  Mn13  1  0.501160  0.498461  0.998276  1
  Mn  Mn14  1  0.665256  0.165773  0.823731  1
  Mn  Mn15  1  0.674313  0.171184  0.339427  1
  Mn  Mn16  1  0.827075  0.831101  0.659834  1
  Mn  Mn17  1  0.844677  0.343697  0.176450  1
  O  O18  1  0.015823  0.745607  0.521947  1
  O  O19  1  0.036836  0.732814  0.000860  1
  O  O20  1  0.159148  0.435593  0.848002  1
  O  O21  1  0.161875  0.418242  0.357009  1
  O  O22  1  0.179169  0.891032  0.818019  1
  O  O23  1  0.195792  0.924084  0.329314  1
  O  O24  1  0.305680  0.596886  0.669053  1
  O  O25  1  0.307284  0.583052  0.147656  1
  O  O26  1  0.335550  0.057347  0.644216  1
  O  O27  1  0.340908  0.065125  0.175734  1
  O  O28  1  0.459597  0.727575  0.996851  1
  O  O29  1  0.481983  0.769787  0.504303  1
  O  O30  1  0.487668  0.220498  0.477139  1
  O  O31  1  0.520673  0.262418  0.991311  1
  O  O32  1  0.624111  0.914941  0.325664  1
  O  O33  1  0.640138  0.919287  0.797169  1
  O  O34  1  0.697232  0.411975  0.850567  1
  O  O35  1  0.712094  0.424320  0.351361  1
  O  O36  1  0.788062  0.064091  0.647457  1
  O  O37  1  0.840838  0.561511  0.150312  1
  O  O38  1  0.856667  0.124251  0.202627  1
  O  O39  1  0.871831  0.599120  0.673668  1
  O  O40  1  0.990382  0.268219  0.006399  1
  O  O41  1  0.998143  0.272878  0.501229  1
