# generated using pymatgen
data_Li4Mn3O7
_symmetry_space_group_name_H-M   P-1
_cell_length_a   5.09089092
_cell_length_b   5.30976711
_cell_length_c   10.09340847
_cell_angle_alpha   101.65838264
_cell_angle_beta   100.91046223
_cell_angle_gamma   96.97339295
_symmetry_Int_Tables_number   2
_chemical_formula_structural   Li4Mn3O7
_chemical_formula_sum   'Li8 Mn6 O14'
_cell_volume   258.73941043
_cell_formula_units_Z   2
loop_
 _symmetry_equiv_pos_site_id
 _symmetry_equiv_pos_as_xyz
  1  'x, y, z'
  2  '-x, -y, -z'
loop_
 _atom_site_type_symbol
 _atom_site_label
 _atom_site_symmetry_multiplicity
 _atom_site_fract_x
 _atom_site_fract_y
 _atom_site_fract_z
 _atom_site_occupancy
  Li  Li1  2  0.139397  0.071453  0.643341  1
  Li  Li2  2  0.290486  0.648072  0.787540  1
  Li  Li3  2  0.417520  0.216831  0.932048  1
  Li  Li4  1  0.000000  0.500000  0.000000  1
  Li  Li5  1  0.000000  0.500000  0.500000  1
  Mn  Mn6  2  0.141688  0.069948  0.141133  1
  Mn  Mn7  2  0.282794  0.641297  0.281669  1
  Mn  Mn8  2  0.427507  0.214014  0.428147  1
  O  O9  2  0.034422  0.253731  0.820609  1
  O  O10  2  0.084100  0.267150  0.316270  1
  O  O11  2  0.196081  0.880427  0.967295  1
  O  O12  2  0.230266  0.836925  0.462370  1
  O  O13  2  0.335266  0.404045  0.117947  1
  O  O14  2  0.371002  0.408674  0.604975  1
  O  O15  2  0.480861  0.016707  0.249906  1
