# generated using pymatgen
data_Li4Mn3O7
_symmetry_space_group_name_H-M   P-1
_cell_length_a   5.07510936
_cell_length_b   5.09273933
_cell_length_c   10.48890872
_cell_angle_alpha   101.81642808
_cell_angle_beta   95.47487216
_cell_angle_gamma   100.68733408
_symmetry_Int_Tables_number   2
_chemical_formula_structural   Li4Mn3O7
_chemical_formula_sum   'Li8 Mn6 O14'
_cell_volume   258.23122233
_cell_formula_units_Z   2
loop_
 _symmetry_equiv_pos_site_id
 _symmetry_equiv_pos_as_xyz
  1  'x, y, z'
  2  '-x, -y, -z'
loop_
 _atom_site_type_symbol
 _atom_site_label
 _atom_site_symmetry_multiplicity
 _atom_site_fract_x
 _atom_site_fract_y
 _atom_site_fract_z
 _atom_site_occupancy
  Li  Li1  2  0.079601  0.141337  0.648792  1
  Li  Li2  2  0.234046  0.428147  0.935282  1
  Li  Li3  2  0.359313  0.712531  0.209418  1
  Li  Li4  1  0.500000  0.000000  0.000000  1
  Li  Li5  1  0.500000  0.000000  0.500000  1
  Mn  Mn6  2  0.064968  0.146841  0.133870  1
  Mn  Mn7  2  0.208482  0.428891  0.426334  1
  Mn  Mn8  2  0.367099  0.711963  0.725361  1
  O  O9  2  0.020711  0.523725  0.760326  1
  O  O10  2  0.118713  0.811523  0.027311  1
  O  O11  2  0.129719  0.763231  0.528698  1
  O  O12  2  0.271296  0.095434  0.304292  1
  O  O13  2  0.271650  0.041577  0.815862  1
  O  O14  2  0.397849  0.348735  0.105905  1
  O  O15  2  0.446944  0.378357  0.611074  1
