# generated using pymatgen
data_Li5(CoO2)4
_symmetry_space_group_name_H-M   P6_3mc
_cell_length_a   5.77872692
_cell_length_b   5.77872692
_cell_length_c   9.53728129
_cell_angle_alpha   90.00000000
_cell_angle_beta   90.00000000
_cell_angle_gamma   120.00000000
_symmetry_Int_Tables_number   186
_chemical_formula_structural   Li5(CoO2)4
_chemical_formula_sum   'Li10 Co8 O16'
_cell_volume   275.81607119
_cell_formula_units_Z   2
loop_
 _symmetry_equiv_pos_site_id
 _symmetry_equiv_pos_as_xyz
  1  'x, y, z'
  2  'x-y, x, z+1/2'
  3  '-y, x-y, z'
  4  '-x, -y, z+1/2'
  5  '-x+y, -x, z'
  6  'y, -x+y, z+1/2'
  7  'y, x, z+1/2'
  8  'x, x-y, z'
  9  'x-y, -y, z+1/2'
  10  '-y, -x, z'
  11  '-x, -x+y, z+1/2'
  12  '-x+y, y, z'
loop_
 _atom_site_type_symbol
 _atom_site_label
 _atom_site_symmetry_multiplicity
 _atom_site_fract_x
 _atom_site_fract_y
 _atom_site_fract_z
 _atom_site_occupancy
  Li  Li1  6  0.191288  0.382576  0.057483  1
  Li  Li2  2  0.000000  0.000000  0.480115  1
  Li  Li3  2  0.333333  0.666667  0.277615  1
  Co  Co4  6  0.170185  0.340370  0.786131  1
  Co  Co5  2  0.333333  0.666667  0.527655  1
  O  O6  6  0.013903  0.506952  0.671847  1
  O  O7  6  0.158696  0.317391  0.399561  1
  O  O8  2  0.000000  0.000000  0.179407  1
  O  O9  2  0.333333  0.666667  0.894872  1
