# generated using pymatgen
data_Li5(CoO2)4
_symmetry_space_group_name_H-M   P1
_cell_length_a   8.20267244
_cell_length_b   8.21225129
_cell_length_c   8.35746555
_cell_angle_alpha   89.84030430
_cell_angle_beta   89.84774796
_cell_angle_gamma   89.92564341
_symmetry_Int_Tables_number   1
_chemical_formula_structural   Li5(CoO2)4
_chemical_formula_sum   'Li20 Co16 O32'
_cell_volume   562.97435512
_cell_formula_units_Z   4
loop_
 _symmetry_equiv_pos_site_id
 _symmetry_equiv_pos_as_xyz
  1  'x, y, z'
loop_
 _atom_site_type_symbol
 _atom_site_label
 _atom_site_symmetry_multiplicity
 _atom_site_fract_x
 _atom_site_fract_y
 _atom_site_fract_z
 _atom_site_occupancy
  Li  Li1  1  0.089877  0.104887  0.910693  1
  Li  Li2  1  0.096578  0.881053  0.106563  1
  Li  Li3  1  0.110036  0.594811  0.380752  1
  Li  Li4  1  0.128692  0.383639  0.587145  1
  Li  Li5  1  0.237340  0.239407  0.759322  1
  Li  Li6  1  0.253234  0.755109  0.256476  1
  Li  Li7  1  0.368838  0.601085  0.086290  1
  Li  Li8  1  0.384016  0.104475  0.597505  1
  Li  Li9  1  0.393724  0.386894  0.879703  1
  Li  Li10  1  0.400345  0.883051  0.403704  1
  Li  Li11  1  0.594077  0.403661  0.086824  1
  Li  Li12  1  0.601737  0.627577  0.893046  1
  Li  Li13  1  0.605802  0.891564  0.635977  1
  Li  Li14  1  0.611162  0.093462  0.410095  1
  Li  Li15  1  0.728129  0.253761  0.245775  1
  Li  Li16  1  0.773267  0.732890  0.738538  1
  Li  Li17  1  0.874998  0.896473  0.906592  1
  Li  Li18  1  0.886870  0.377796  0.393917  1
  Li  Li19  1  0.888533  0.102263  0.122038  1
  Li  Li20  1  0.912890  0.585601  0.585621  1
  Co  Co21  1  0.117698  0.869833  0.625857  1
  Co  Co22  1  0.118775  0.368897  0.125880  1
  Co  Co23  1  0.119492  0.121315  0.370964  1
  Co  Co24  1  0.119969  0.621883  0.871740  1
  Co  Co25  1  0.361480  0.875458  0.872480  1
  Co  Co26  1  0.371542  0.121147  0.124474  1
  Co  Co27  1  0.376350  0.620151  0.623202  1
  Co  Co28  1  0.377490  0.372051  0.371705  1
  Co  Co29  1  0.621001  0.871197  0.126230  1
  Co  Co30  1  0.621745  0.123337  0.876559  1
  Co  Co31  1  0.624705  0.373694  0.629100  1
  Co  Co32  1  0.624919  0.623471  0.378031  1
  Co  Co33  1  0.868437  0.873886  0.372909  1
  Co  Co34  1  0.869321  0.370034  0.878491  1
  Co  Co35  1  0.869816  0.619352  0.129623  1
  Co  Co36  1  0.870254  0.125310  0.624084  1
  O  O37  1  0.104136  0.885921  0.370243  1
  O  O38  1  0.104344  0.365576  0.894346  1
  O  O39  1  0.108887  0.128204  0.605081  1
  O  O40  1  0.109377  0.874476  0.875790  1
  O  O41  1  0.110630  0.608627  0.134046  1
  O  O42  1  0.120081  0.357740  0.357611  1
  O  O43  1  0.131035  0.130230  0.137927  1
  O  O44  1  0.138992  0.618397  0.614428  1
  O  O45  1  0.358175  0.360570  0.122970  1
  O  O46  1  0.360464  0.118780  0.360762  1
  O  O47  1  0.369540  0.617821  0.856392  1
  O  O48  1  0.376283  0.859086  0.628892  1
  O  O49  1  0.384448  0.882682  0.122857  1
  O  O50  1  0.385230  0.127898  0.891197  1
  O  O51  1  0.385274  0.376498  0.626193  1
  O  O52  1  0.388688  0.624676  0.388103  1
  O  O53  1  0.612359  0.111475  0.112066  1
  O  O54  1  0.619221  0.611377  0.613977  1
  O  O55  1  0.629309  0.881947  0.887875  1
  O  O56  1  0.629768  0.632988  0.140814  1
  O  O57  1  0.631078  0.135479  0.641227  1
  O  O58  1  0.632173  0.385286  0.395910  1
  O  O59  1  0.632462  0.861113  0.360442  1
  O  O60  1  0.632807  0.361478  0.863178  1
  O  O61  1  0.858502  0.859482  0.139301  1
  O  O62  1  0.858760  0.133335  0.862169  1
  O  O63  1  0.861712  0.889029  0.604017  1
  O  O64  1  0.862460  0.634342  0.363620  1
  O  O65  1  0.863450  0.362450  0.642002  1
  O  O66  1  0.865776  0.605752  0.896791  1
  O  O67  1  0.873364  0.116116  0.382081  1
  O  O68  1  0.874806  0.378247  0.116091  1
