# generated using pymatgen
data_Li5(CoO3)2
_symmetry_space_group_name_H-M   Cmmm
_cell_length_a   12.52659769
_cell_length_b   12.72908532
_cell_length_c   3.49137440
_cell_angle_alpha   90.00000000
_cell_angle_beta   90.00000000
_cell_angle_gamma   90.00000000
_symmetry_Int_Tables_number   65
_chemical_formula_structural   Li5(CoO3)2
_chemical_formula_sum   'Li20 Co8 O24'
_cell_volume   556.70708739
_cell_formula_units_Z   4
loop_
 _symmetry_equiv_pos_site_id
 _symmetry_equiv_pos_as_xyz
  1  'x, y, z'
  2  '-x, -y, -z'
  3  '-x, -y, z'
  4  'x, y, -z'
  5  'x, -y, -z'
  6  '-x, y, z'
  7  '-x, y, -z'
  8  'x, -y, z'
  9  'x+1/2, y+1/2, z'
  10  '-x+1/2, -y+1/2, -z'
  11  '-x+1/2, -y+1/2, z'
  12  'x+1/2, y+1/2, -z'
  13  'x+1/2, -y+1/2, -z'
  14  '-x+1/2, y+1/2, z'
  15  '-x+1/2, y+1/2, -z'
  16  'x+1/2, -y+1/2, z'
loop_
 _atom_site_type_symbol
 _atom_site_label
 _atom_site_symmetry_multiplicity
 _atom_site_fract_x
 _atom_site_fract_y
 _atom_site_fract_z
 _atom_site_occupancy
  Li  Li1  8  0.104487  0.283826  0.000000  1
  Li  Li2  8  0.237949  0.134613  0.500000  1
  Li  Li3  4  0.170516  0.000000  0.000000  1
  Co  Co4  4  0.000000  0.115183  0.500000  1
  Co  Co5  4  0.110625  0.500000  0.000000  1
  O  O6  8  0.105285  0.205891  0.500000  1
  O  O7  8  0.208678  0.398226  0.000000  1
  O  O8  4  0.000000  0.405277  0.000000  1
  O  O9  4  0.095679  0.000000  0.500000  1
