# generated using pymatgen
data_Li5Co7O12
_symmetry_space_group_name_H-M   C2
_cell_length_a   5.01285366
_cell_length_b   8.72778723
_cell_length_c   9.65268631
_cell_angle_alpha   90.00000000
_cell_angle_beta   99.58232726
_cell_angle_gamma   90.00000000
_symmetry_Int_Tables_number   5
_chemical_formula_structural   Li5Co7O12
_chemical_formula_sum   'Li10 Co14 O24'
_cell_volume   416.42344712
_cell_formula_units_Z   2
loop_
 _symmetry_equiv_pos_site_id
 _symmetry_equiv_pos_as_xyz
  1  'x, y, z'
  2  '-x, y, -z'
  3  'x+1/2, y+1/2, z'
  4  '-x+1/2, y+1/2, -z'
loop_
 _atom_site_type_symbol
 _atom_site_label
 _atom_site_symmetry_multiplicity
 _atom_site_fract_x
 _atom_site_fract_y
 _atom_site_fract_z
 _atom_site_occupancy
  Li  Li1  4  0.247436  0.083852  0.241184  1
  Li  Li2  4  0.248928  0.414779  0.240918  1
  Li  Li3  2  0.000000  0.917510  0.000000  1
  Co  Co4  4  0.240891  0.755070  0.241042  1
  Co  Co5  2  0.000000  0.080989  0.500000  1
  Co  Co6  2  0.000000  0.250681  0.000000  1
  Co  Co7  2  0.000000  0.419597  0.500000  1
  Co  Co8  2  0.000000  0.582831  0.000000  1
  Co  Co9  2  0.000000  0.748669  0.500000  1
  O  O10  4  0.111560  0.411633  0.883845  1
  O  O11  4  0.113551  0.591701  0.383552  1
  O  O12  4  0.125891  0.905944  0.381700  1
  O  O13  4  0.135679  0.737665  0.887501  1
  O  O14  4  0.137632  0.252726  0.385867  1
  O  O15  4  0.145138  0.096491  0.883927  1
