# generated using pymatgen
data_Li5Mn12O24
_symmetry_space_group_name_H-M   Cm
_cell_length_a   10.53392231
_cell_length_b   5.83654949
_cell_length_c   43.67399391
_cell_angle_alpha   90.00000000
_cell_angle_beta   92.92243743
_cell_angle_gamma   90.00000000
_symmetry_Int_Tables_number   8
_chemical_formula_structural   Li5Mn12O24
_chemical_formula_sum   'Li30 Mn72 O144'
_cell_volume   2681.66183411
_cell_formula_units_Z   6
loop_
 _symmetry_equiv_pos_site_id
 _symmetry_equiv_pos_as_xyz
  1  'x, y, z'
  2  'x, -y, z'
  3  'x+1/2, y+1/2, z'
  4  'x+1/2, -y+1/2, z'
loop_
 _atom_site_type_symbol
 _atom_site_label
 _atom_site_symmetry_multiplicity
 _atom_site_fract_x
 _atom_site_fract_y
 _atom_site_fract_z
 _atom_site_occupancy
  Li  Li1  2  0.005277  0.000000  0.790909  1
  Li  Li2  2  0.007035  0.000000  0.540995  1
  Li  Li3  2  0.007224  0.000000  0.123972  1
  Li  Li4  2  0.157174  0.500000  0.682945  1
  Li  Li5  2  0.157524  0.500000  0.016197  1
  Li  Li6  2  0.163535  0.500000  0.430786  1
  Li  Li7  2  0.173941  0.500000  0.345977  1
  Li  Li8  2  0.326407  0.000000  0.320334  1
  Li  Li9  2  0.327206  0.000000  0.570836  1
  Li  Li10  2  0.339905  0.000000  0.651777  1
  Li  Li11  2  0.340695  0.000000  0.234136  1
  Li  Li12  2  0.342497  0.000000  0.983828  1
  Li  Li13  2  0.490937  0.500000  0.209433  1
  Li  Li14  2  0.494703  0.500000  0.875821  1
  Li  Li15  2  0.498776  0.500000  0.458152  1
  Mn  Mn16  4  0.083298  0.249875  0.611353  1
  Mn  Mn17  4  0.084102  0.250264  0.277638  1
  Mn  Mn18  4  0.087652  0.249419  0.944357  1
  Mn  Mn19  4  0.249793  0.250082  0.165696  1
  Mn  Mn20  4  0.249928  0.249902  0.833333  1
  Mn  Mn21  4  0.252125  0.252404  0.499933  1
  Mn  Mn22  4  0.412506  0.250631  0.722605  1
  Mn  Mn23  4  0.412615  0.250714  0.055594  1
  Mn  Mn24  4  0.417532  0.249877  0.388797  1
  Mn  Mn25  2  0.000083  0.500000  0.833346  1
  Mn  Mn26  2  0.000351  0.500000  0.499464  1
  Mn  Mn27  2  0.000354  0.000000  0.000168  1
  Mn  Mn28  2  0.000955  0.500000  0.166897  1
  Mn  Mn29  2  0.159444  0.500000  0.889284  1
  Mn  Mn30  2  0.165094  0.000000  0.723520  1
  Mn  Mn31  2  0.165204  0.000000  0.056621  1
  Mn  Mn32  2  0.165383  0.500000  0.555811  1
  Mn  Mn33  2  0.166440  0.000000  0.388379  1
  Mn  Mn34  2  0.167484  0.500000  0.221946  1
  Mn  Mn35  2  0.325680  0.000000  0.444209  1
  Mn  Mn36  2  0.333346  0.500000  0.277590  1
  Mn  Mn37  2  0.333509  0.500000  0.611332  1
  Mn  Mn38  2  0.335250  0.500000  0.943528  1
  Mn  Mn39  2  0.340832  0.000000  0.777658  1
  Mn  Mn40  2  0.343344  0.000000  0.110488  1
  Mn  Mn41  2  0.499304  0.500000  0.667359  1
  Mn  Mn42  2  0.499664  0.500000  0.333086  1
  O  O43  4  0.064688  0.226336  0.697884  1
  O  O44  4  0.064766  0.225378  0.030860  1
  O  O45  4  0.083517  0.279394  0.194827  1
  O  O46  4  0.083942  0.277648  0.860545  1
  O  O47  4  0.084236  0.221039  0.360845  1
  O  O48  4  0.100210  0.273102  0.524614  1
  O  O49  4  0.232538  0.278894  0.918909  1
  O  O50  4  0.233407  0.275272  0.586162  1
  O  O51  4  0.248021  0.219543  0.416337  1
  O  O52  4  0.251413  0.279720  0.249776  1
  O  O53  4  0.267665  0.220685  0.747934  1
  O  O54  4  0.268403  0.219996  0.081106  1
  O  O55  4  0.401173  0.223545  0.474145  1
  O  O56  4  0.416362  0.278674  0.305602  1
  O  O57  4  0.417117  0.220524  0.805843  1
  O  O58  4  0.420314  0.219803  0.139105  1
  O  O59  4  0.433148  0.274881  0.636358  1
  O  O60  4  0.435428  0.273980  0.968974  1
  O  O61  2  0.007994  0.000000  0.411323  1
  O  O62  2  0.009180  0.500000  0.586889  1
  O  O63  2  0.011065  0.000000  0.920472  1
  O  O64  2  0.011129  0.000000  0.586676  1
  O  O65  2  0.022527  0.500000  0.918036  1
  O  O66  2  0.025264  0.500000  0.250042  1
  O  O67  2  0.141623  0.000000  0.305300  1
  O  O68  2  0.155741  0.500000  0.636021  1
  O  O69  2  0.156909  0.500000  0.145084  1
  O  O70  2  0.157245  0.000000  0.635615  1
  O  O71  2  0.159118  0.500000  0.812287  1
  O  O72  2  0.159213  0.000000  0.968695  1
  O  O73  2  0.159867  0.500000  0.968802  1
  O  O74  2  0.175436  0.500000  0.299962  1
  O  O75  2  0.178884  0.500000  0.475729  1
  O  O76  2  0.183397  0.000000  0.473909  1
  O  O77  2  0.194294  0.000000  0.804153  1
  O  O78  2  0.195440  0.000000  0.136958  1
  O  O79  2  0.305989  0.500000  0.862569  1
  O  O80  2  0.307571  0.500000  0.194376  1
  O  O81  2  0.323453  0.000000  0.524379  1
  O  O82  2  0.325177  0.500000  0.524497  1
  O  O83  2  0.325826  0.000000  0.366454  1
  O  O84  2  0.339708  0.000000  0.188294  1
  O  O85  2  0.339786  0.000000  0.031113  1
  O  O86  2  0.340357  0.500000  0.698163  1
  O  O87  2  0.340760  0.500000  0.031164  1
  O  O88  2  0.341096  0.000000  0.854478  1
  O  O89  2  0.341404  0.000000  0.698011  1
  O  O90  2  0.358528  0.500000  0.361306  1
  O  O91  2  0.475467  0.000000  0.417081  1
  O  O92  2  0.477861  0.000000  0.748833  1
  O  O93  2  0.478768  0.000000  0.081668  1
  O  O94  2  0.488063  0.500000  0.746473  1
  O  O95  2  0.489291  0.500000  0.079401  1
  O  O96  2  0.491745  0.500000  0.255422  1
