# generated using pymatgen
data_Li5Mn7O12
_symmetry_space_group_name_H-M   C2
_cell_length_a   5.22485354
_cell_length_b   9.09827567
_cell_length_c   9.97329826
_cell_angle_alpha   90.00000000
_cell_angle_beta   100.18062659
_cell_angle_gamma   90.00000000
_symmetry_Int_Tables_number   5
_chemical_formula_structural   Li5Mn7O12
_chemical_formula_sum   'Li10 Mn14 O24'
_cell_volume   466.63771724
_cell_formula_units_Z   2
loop_
 _symmetry_equiv_pos_site_id
 _symmetry_equiv_pos_as_xyz
  1  'x, y, z'
  2  '-x, y, -z'
  3  'x+1/2, y+1/2, z'
  4  '-x+1/2, y+1/2, -z'
loop_
 _atom_site_type_symbol
 _atom_site_label
 _atom_site_symmetry_multiplicity
 _atom_site_fract_x
 _atom_site_fract_y
 _atom_site_fract_z
 _atom_site_occupancy
  Li  Li1  4  0.244187  0.087880  0.245180  1
  Li  Li2  4  0.247007  0.911107  0.753009  1
  Li  Li3  2  0.000000  0.915456  0.000000  1
  Mn  Mn4  4  0.244726  0.753539  0.244172  1
  Mn  Mn5  2  0.000000  0.078702  0.500000  1
  Mn  Mn6  2  0.000000  0.249288  0.000000  1
  Mn  Mn7  2  0.000000  0.421413  0.500000  1
  Mn  Mn8  2  0.000000  0.577587  0.000000  1
  Mn  Mn9  2  0.000000  0.749940  0.500000  1
  O  O10  4  0.111901  0.405850  0.884639  1
  O  O11  4  0.121293  0.103512  0.880666  1
  O  O12  4  0.129104  0.910721  0.369373  1
  O  O13  4  0.129971  0.742379  0.881426  1
  O  O14  4  0.136641  0.587826  0.374937  1
  O  O15  4  0.140654  0.250994  0.382455  1
