# generated using pymatgen
data_Li7(CoO3)2
_symmetry_space_group_name_H-M   P1
_cell_length_a   5.28860679
_cell_length_b   5.35241312
_cell_length_c   5.84703042
_cell_angle_alpha   63.06259737
_cell_angle_beta   87.39758655
_cell_angle_gamma   82.26018179
_symmetry_Int_Tables_number   1
_chemical_formula_structural   Li7(CoO3)2
_chemical_formula_sum   'Li7 Co2 O6'
_cell_volume   146.18613433
_cell_formula_units_Z   1
loop_
 _symmetry_equiv_pos_site_id
 _symmetry_equiv_pos_as_xyz
  1  'x, y, z'
loop_
 _atom_site_type_symbol
 _atom_site_label
 _atom_site_symmetry_multiplicity
 _atom_site_fract_x
 _atom_site_fract_y
 _atom_site_fract_z
 _atom_site_occupancy
  Li  Li1  1  0.119764  0.989655  0.188357  1
  Li  Li2  1  0.144066  0.463189  0.850702  1
  Li  Li3  1  0.507390  0.835486  0.940316  1
  Li  Li4  1  0.601033  0.272045  0.161377  1
  Li  Li5  1  0.814830  0.218267  0.825336  1
  Li  Li6  1  0.897916  0.573098  0.170797  1
  Li  Li7  1  0.963968  0.937291  0.625015  1
  Co  Co8  1  0.311981  0.326102  0.501629  1
  Co  Co9  1  0.619106  0.697224  0.500608  1
  O  O10  1  0.186422  0.092663  0.814126  1
  O  O11  1  0.230949  0.356721  0.192020  1
  O  O12  1  0.248220  0.693027  0.511124  1
  O  O13  1  0.686185  0.295080  0.488823  1
  O  O14  1  0.741239  0.927995  0.159474  1
  O  O15  1  0.764211  0.590430  0.844208  1
