# generated using pymatgen
data_Li7Co5O12
_symmetry_space_group_name_H-M   C2/m
_cell_length_a   9.90839101
_cell_length_b   2.99835833
_cell_length_c   14.84476391
_cell_angle_alpha   90.00000000
_cell_angle_beta   102.53896692
_cell_angle_gamma   90.00000000
_symmetry_Int_Tables_number   12
_chemical_formula_structural   Li7Co5O12
_chemical_formula_sum   'Li14 Co10 O24'
_cell_volume   430.50271321
_cell_formula_units_Z   2
loop_
 _symmetry_equiv_pos_site_id
 _symmetry_equiv_pos_as_xyz
  1  'x, y, z'
  2  '-x+1/2, -y+1/2, -z'
  3  '-x+1/2, y+1/2, -z'
  4  'x, -y, z'
  5  'x+1/2, y+1/2, z'
  6  '-x, -y, -z'
  7  '-x, y, -z'
  8  'x+1/2, -y+1/2, z'
loop_
 _atom_site_type_symbol
 _atom_site_label
 _atom_site_symmetry_multiplicity
 _atom_site_fract_x
 _atom_site_fract_y
 _atom_site_fract_z
 _atom_site_occupancy
  Li  Li1  4  0.247886  0.500000  0.749086  1
  Li  Li2  4  0.248265  0.000000  0.582125  1
  Li  Li3  4  0.249637  0.500000  0.083295  1
  Li  Li4  2  0.000000  0.500000  0.500000  1
  Co  Co5  4  0.000080  0.500000  0.168394  1
  Co  Co6  4  0.000820  0.000000  0.659633  1
  Co  Co7  2  0.000000  0.000000  0.000000  1
  O  O8  4  0.110646  0.000000  0.783973  1
  O  O9  4  0.112960  0.500000  0.288589  1
  O  O10  4  0.113958  0.500000  0.628103  1
  O  O11  4  0.115815  0.500000  0.954248  1
  O  O12  4  0.116617  0.000000  0.121550  1
  O  O13  4  0.116897  0.000000  0.446369  1
