# generated using pymatgen
data_Li7Co5O12
_symmetry_space_group_name_H-M   P2/m
_cell_length_a   5.06264890
_cell_length_b   2.99271341
_cell_length_c   14.21542740
_cell_angle_alpha   90.00000000
_cell_angle_beta   93.10074336
_cell_angle_gamma   90.00000000
_symmetry_Int_Tables_number   10
_chemical_formula_structural   Li7Co5O12
_chemical_formula_sum   'Li7 Co5 O12'
_cell_volume   215.06343304
_cell_formula_units_Z   1
loop_
 _symmetry_equiv_pos_site_id
 _symmetry_equiv_pos_as_xyz
  1  'x, y, z'
  2  '-x, -y, -z'
  3  '-x, y, -z'
  4  'x, -y, z'
loop_
 _atom_site_type_symbol
 _atom_site_label
 _atom_site_symmetry_multiplicity
 _atom_site_fract_x
 _atom_site_fract_y
 _atom_site_fract_z
 _atom_site_occupancy
  Li  Li1  2  0.170020  0.500000  0.667031  1
  Li  Li2  2  0.330525  0.000000  0.832271  1
  Li  Li3  1  0.000000  0.000000  0.500000  1
  Li  Li4  1  0.500000  0.500000  0.000000  1
  Li  Li5  1  0.500000  0.500000  0.500000  1
  Co  Co6  2  0.178590  0.500000  0.167761  1
  Co  Co7  2  0.333242  0.000000  0.340954  1
  Co  Co8  1  0.000000  0.000000  0.000000  1
  O  O9  2  0.038781  0.000000  0.252637  1
  O  O10  2  0.139573  0.500000  0.915217  1
  O  O11  2  0.173966  0.500000  0.411004  1
  O  O12  2  0.318984  0.000000  0.082089  1
  O  O13  2  0.371199  0.000000  0.592992  1
  O  O14  2  0.482630  0.500000  0.250290  1
