# generated using pymatgen
data_Li7Co5O12
_symmetry_space_group_name_H-M   C2/m
_cell_length_a   5.01370960
_cell_length_b   2.94096996
_cell_length_c   29.76499929
_cell_angle_alpha   90.00000000
_cell_angle_beta   91.02590652
_cell_angle_gamma   90.00000000
_symmetry_Int_Tables_number   12
_chemical_formula_structural   Li7Co5O12
_chemical_formula_sum   'Li14 Co10 O24'
_cell_volume   438.81960055
_cell_formula_units_Z   2
loop_
 _symmetry_equiv_pos_site_id
 _symmetry_equiv_pos_as_xyz
  1  'x, y, z'
  2  '-x, -y, -z'
  3  '-x, y, -z'
  4  'x, -y, z'
  5  'x+1/2, y+1/2, z'
  6  '-x+1/2, -y+1/2, -z'
  7  '-x+1/2, y+1/2, -z'
  8  'x+1/2, -y+1/2, z'
loop_
 _atom_site_type_symbol
 _atom_site_label
 _atom_site_symmetry_multiplicity
 _atom_site_fract_x
 _atom_site_fract_y
 _atom_site_fract_z
 _atom_site_occupancy
  Li  Li1  4  0.003648  0.500000  0.250111  1
  Li  Li2  4  0.165962  0.000000  0.083481  1
  Li  Li3  4  0.168088  0.000000  0.583582  1
  Li  Li4  2  0.000000  0.500000  0.500000  1
  Co  Co5  4  0.165588  0.000000  0.833394  1
  Co  Co6  4  0.166591  0.000000  0.331974  1
  Co  Co7  2  0.000000  0.500000  0.000000  1
  O  O8  4  0.006703  0.500000  0.871583  1
  O  O9  4  0.015519  0.500000  0.631259  1
  O  O10  4  0.151910  0.000000  0.706289  1
  O  O11  4  0.167068  0.000000  0.456495  1
  O  O12  4  0.175938  0.000000  0.204781  1
  O  O13  4  0.179984  0.000000  0.961940  1
