# generated using pymatgen
data_Li7Co5O12
_symmetry_space_group_name_H-M   C2/m
_cell_length_a   4.90904792
_cell_length_b   8.48992729
_cell_length_c   9.60966607
_cell_angle_alpha   90.00000000
_cell_angle_beta   100.04511644
_cell_angle_gamma   90.00000000
_symmetry_Int_Tables_number   12
_chemical_formula_structural   Li7Co5O12
_chemical_formula_sum   'Li14 Co10 O24'
_cell_volume   394.36699299
_cell_formula_units_Z   2
loop_
 _symmetry_equiv_pos_site_id
 _symmetry_equiv_pos_as_xyz
  1  'x, y, z'
  2  '-x, -y, -z'
  3  '-x, y, -z'
  4  'x, -y, z'
  5  'x+1/2, y+1/2, z'
  6  '-x+1/2, -y+1/2, -z'
  7  '-x+1/2, y+1/2, -z'
  8  'x+1/2, -y+1/2, z'
loop_
 _atom_site_type_symbol
 _atom_site_label
 _atom_site_symmetry_multiplicity
 _atom_site_fract_x
 _atom_site_fract_y
 _atom_site_fract_z
 _atom_site_occupancy
  Li  Li1  8  0.246617  0.162195  0.748745  1
  Li  Li2  4  0.243876  0.000000  0.250804  1
  Li  Li3  2  0.000000  0.000000  0.500000  1
  Co  Co4  4  0.000000  0.163887  0.000000  1
  Co  Co5  4  0.000000  0.334395  0.500000  1
  Co  Co6  2  0.000000  0.500000  0.000000  1
  O  O7  8  0.129478  0.336279  0.892086  1
  O  O8  8  0.146485  0.179946  0.388158  1
  O  O9  4  0.105143  0.500000  0.388566  1
  O  O10  4  0.129380  0.000000  0.890149  1
