# generated using pymatgen
data_Li7Co5O12
_symmetry_space_group_name_H-M   P-1
_cell_length_a   5.69351413
_cell_length_b   6.40723431
_cell_length_c   6.41727799
_cell_angle_alpha   96.80355508
_cell_angle_beta   116.09514682
_cell_angle_gamma   102.93947380
_symmetry_Int_Tables_number   2
_chemical_formula_structural   Li7Co5O12
_chemical_formula_sum   'Li7 Co5 O12'
_cell_volume   198.50388663
_cell_formula_units_Z   1
loop_
 _symmetry_equiv_pos_site_id
 _symmetry_equiv_pos_as_xyz
  1  'x, y, z'
  2  '-x, -y, -z'
loop_
 _atom_site_type_symbol
 _atom_site_label
 _atom_site_symmetry_multiplicity
 _atom_site_fract_x
 _atom_site_fract_y
 _atom_site_fract_z
 _atom_site_occupancy
  Li  Li1  2  0.241633  0.998570  0.504209  1
  Li  Li2  2  0.248731  0.320557  0.833390  1
  Li  Li3  2  0.252626  0.672837  0.164816  1
  Li  Li4  1  0.500000  0.000000  0.000000  1
  Co  Co5  2  0.001716  0.667456  0.667819  1
  Co  Co6  2  0.499698  0.327356  0.327137  1
  Co  Co7  1  0.000000  0.000000  0.000000  1
  O  O8  2  0.114958  0.983200  0.757987  1
  O  O9  2  0.131087  0.320707  0.100186  1
  O  O10  2  0.136100  0.655465  0.438623  1
  O  O11  2  0.360215  0.658787  0.883166  1
  O  O12  2  0.363407  0.025667  0.245965  1
  O  O13  2  0.372966  0.351688  0.563053  1
