# generated using pymatgen
data_Li7Co5O12
_symmetry_space_group_name_H-M   P-1
_cell_length_a   5.08957368
_cell_length_b   5.77486473
_cell_length_c   7.75142949
_cell_angle_alpha   79.06361149
_cell_angle_beta   78.12368803
_cell_angle_gamma   73.23039761
_symmetry_Int_Tables_number   2
_chemical_formula_structural   Li7Co5O12
_chemical_formula_sum   'Li7 Co5 O12'
_cell_volume   211.39311279
_cell_formula_units_Z   1
loop_
 _symmetry_equiv_pos_site_id
 _symmetry_equiv_pos_as_xyz
  1  'x, y, z'
  2  '-x, -y, -z'
loop_
 _atom_site_type_symbol
 _atom_site_label
 _atom_site_symmetry_multiplicity
 _atom_site_fract_x
 _atom_site_fract_y
 _atom_site_fract_z
 _atom_site_occupancy
  Li  Li1  2  0.000239  0.838535  0.161122  1
  Li  Li2  2  0.002064  0.331008  0.161959  1
  Li  Li3  1  0.000000  0.000000  0.500000  1
  Li  Li4  1  0.000000  0.500000  0.500000  1
  Li  Li5  1  0.500000  0.000000  0.000000  1
  Co  Co6  2  0.498286  0.327922  0.674976  1
  Co  Co7  2  0.499712  0.165626  0.327947  1
  Co  Co8  1  0.500000  0.500000  0.000000  1
  O  O9  2  0.264238  0.164977  0.581503  1
  O  O10  2  0.269248  0.990775  0.262136  1
  O  O11  2  0.272955  0.499221  0.232010  1
  O  O12  2  0.276318  0.807812  0.914777  1
  O  O13  2  0.279307  0.655612  0.584306  1
  O  O14  2  0.281083  0.347387  0.914684  1
