# generated using pymatgen
data_Li7Co5O12
_symmetry_space_group_name_H-M   P2/m
_cell_length_a   5.02959284
_cell_length_b   8.72957533
_cell_length_c   5.10824452
_cell_angle_alpha   90.00000000
_cell_angle_beta   109.71604417
_cell_angle_gamma   90.00000000
_symmetry_Int_Tables_number   10
_chemical_formula_structural   Li7Co5O12
_chemical_formula_sum   'Li7 Co5 O12'
_cell_volume   211.13527486
_cell_formula_units_Z   1
loop_
 _symmetry_equiv_pos_site_id
 _symmetry_equiv_pos_as_xyz
  1  'x, y, z'
  2  '-x, -y, -z'
  3  '-x, y, -z'
  4  'x, -y, z'
loop_
 _atom_site_type_symbol
 _atom_site_label
 _atom_site_symmetry_multiplicity
 _atom_site_fract_x
 _atom_site_fract_y
 _atom_site_fract_z
 _atom_site_occupancy
  Li  Li1  2  0.000000  0.167746  0.500000  1
  Li  Li2  2  0.500000  0.342970  0.500000  1
  Li  Li3  1  0.000000  0.500000  0.500000  1
  Li  Li4  1  0.500000  0.000000  0.500000  1
  Li  Li5  1  0.500000  0.500000  0.000000  1
  Co  Co6  2  0.000000  0.338030  0.000000  1
  Co  Co7  2  0.500000  0.165612  0.000000  1
  Co  Co8  1  0.000000  0.000000  0.000000  1
  O  O9  4  0.250392  0.159417  0.217590  1
  O  O10  4  0.258523  0.313049  0.779416  1
  O  O11  2  0.226318  0.500000  0.245807  1
  O  O12  2  0.277259  0.000000  0.779661  1
