# generated using pymatgen
data_Li7Co5O12
_symmetry_space_group_name_H-M   P2/m
_cell_length_a   5.90826612
_cell_length_b   2.88614277
_cell_length_c   12.59491146
_cell_angle_alpha   90.00000000
_cell_angle_beta   103.26188118
_cell_angle_gamma   90.00000000
_symmetry_Int_Tables_number   10
_chemical_formula_structural   Li7Co5O12
_chemical_formula_sum   'Li7 Co5 O12'
_cell_volume   209.04214354
_cell_formula_units_Z   1
loop_
 _symmetry_equiv_pos_site_id
 _symmetry_equiv_pos_as_xyz
  1  'x, y, z'
  2  '-x, -y, -z'
  3  '-x, y, -z'
  4  'x, -y, z'
loop_
 _atom_site_type_symbol
 _atom_site_label
 _atom_site_symmetry_multiplicity
 _atom_site_fract_x
 _atom_site_fract_y
 _atom_site_fract_z
 _atom_site_occupancy
  Li  Li1  2  0.164363  0.500000  0.832282  1
  Li  Li2  2  0.321047  0.000000  0.657878  1
  Li  Li3  1  0.000000  0.000000  0.000000  1
  Li  Li4  1  0.000000  0.500000  0.500000  1
  Li  Li5  1  0.500000  0.500000  0.500000  1
  Co  Co6  2  0.164543  0.000000  0.340208  1
  Co  Co7  2  0.329260  0.500000  0.167500  1
  Co  Co8  1  0.500000  0.000000  0.000000  1
  O  O9  2  0.051194  0.500000  0.666833  1
  O  O10  2  0.099372  0.000000  0.177161  1
  O  O11  2  0.243498  0.000000  0.485585  1
  O  O12  2  0.261422  0.500000  0.005083  1
  O  O13  2  0.383836  0.500000  0.330312  1
  O  O14  2  0.431758  0.000000  0.836823  1
