# generated using pymatgen
data_Li7Mn5O12
_symmetry_space_group_name_H-M   P-1
_cell_length_a   5.85655551
_cell_length_b   5.94059875
_cell_length_c   7.78831977
_cell_angle_alpha   77.29499481
_cell_angle_beta   67.91109004
_cell_angle_gamma   61.36579459
_symmetry_Int_Tables_number   2
_chemical_formula_structural   Li7Mn5O12
_chemical_formula_sum   'Li7 Mn5 O12'
_cell_volume   220.10765996
_cell_formula_units_Z   1
loop_
 _symmetry_equiv_pos_site_id
 _symmetry_equiv_pos_as_xyz
  1  'x, y, z'
  2  '-x, -y, -z'
loop_
 _atom_site_type_symbol
 _atom_site_label
 _atom_site_symmetry_multiplicity
 _atom_site_fract_x
 _atom_site_fract_y
 _atom_site_fract_z
 _atom_site_occupancy
  Li  Li1  2  0.001478  0.663023  0.827051  1
  Li  Li2  2  0.499120  0.834343  0.169888  1
  Li  Li3  1  0.000000  0.000000  0.500000  1
  Li  Li4  1  0.000000  0.500000  0.500000  1
  Li  Li5  1  0.500000  0.500000  0.500000  1
  Mn  Mn6  2  0.000835  0.167577  0.829714  1
  Mn  Mn7  2  0.492922  0.342269  0.172148  1
  Mn  Mn8  1  0.500000  0.000000  0.500000  1
  O  O9  2  0.238555  0.985491  0.990496  1
  O  O10  2  0.245780  0.662527  0.315647  1
  O  O11  2  0.260169  0.294674  0.659718  1
  O  O12  2  0.273417  0.496196  0.992300  1
  O  O13  2  0.276619  0.825195  0.654429  1
  O  O14  2  0.279179  0.166568  0.330371  1
