# generated using pymatgen
data_Li7Mn5O12
_symmetry_space_group_name_H-M   P-1
_cell_length_a   6.01816130
_cell_length_b   6.51762886
_cell_length_c   6.51896376
_cell_angle_alpha   96.74827415
_cell_angle_beta   103.46595724
_cell_angle_gamma   114.03069677
_symmetry_Int_Tables_number   2
_chemical_formula_structural   Li7Mn5O12
_chemical_formula_sum   'Li7 Mn5 O12'
_cell_volume   220.53286022
_cell_formula_units_Z   1
loop_
 _symmetry_equiv_pos_site_id
 _symmetry_equiv_pos_as_xyz
  1  'x, y, z'
  2  '-x, -y, -z'
loop_
 _atom_site_type_symbol
 _atom_site_label
 _atom_site_symmetry_multiplicity
 _atom_site_fract_x
 _atom_site_fract_y
 _atom_site_fract_z
 _atom_site_occupancy
  Li  Li1  2  0.240985  0.494445  0.002384  1
  Li  Li2  2  0.252593  0.831022  0.331088  1
  Li  Li3  2  0.255623  0.160591  0.679709  1
  Li  Li4  1  0.500000  0.000000  0.000000  1
  Mn  Mn5  2  0.012856  0.675536  0.668311  1
  Mn  Mn6  2  0.497327  0.328071  0.330292  1
  Mn  Mn7  1  0.000000  0.000000  0.000000  1
  O  O8  2  0.098490  0.079178  0.315547  1
  O  O9  2  0.107877  0.420519  0.653776  1
  O  O10  2  0.110743  0.755848  0.982063  1
  O  O11  2  0.343295  0.231471  0.015730  1
  O  O12  2  0.370063  0.896114  0.664024  1
  O  O13  2  0.374539  0.567772  0.345644  1
