# generated using pymatgen
data_Li7Mn5O12
_symmetry_space_group_name_H-M   P-1
_cell_length_a   5.06983171
_cell_length_b   5.10570673
_cell_length_c   9.02734788
_cell_angle_alpha   91.76930967
_cell_angle_beta   92.69718504
_cell_angle_gamma   107.98408833
_symmetry_Int_Tables_number   2
_chemical_formula_structural   Li7Mn5O12
_chemical_formula_sum   'Li7 Mn5 O12'
_cell_volume   221.75692898
_cell_formula_units_Z   1
loop_
 _symmetry_equiv_pos_site_id
 _symmetry_equiv_pos_as_xyz
  1  'x, y, z'
  2  '-x, -y, -z'
loop_
 _atom_site_type_symbol
 _atom_site_label
 _atom_site_symmetry_multiplicity
 _atom_site_fract_x
 _atom_site_fract_y
 _atom_site_fract_z
 _atom_site_occupancy
  Li  Li1  2  0.013846  0.510404  0.322224  1
  Li  Li2  2  0.496098  0.502271  0.848613  1
  Li  Li3  1  0.000000  0.500000  0.000000  1
  Li  Li4  1  0.500000  0.000000  0.000000  1
  Li  Li5  1  0.500000  0.500000  0.500000  1
  Mn  Mn6  2  0.006584  0.000881  0.160426  1
  Mn  Mn7  2  0.496859  0.000358  0.670166  1
  Mn  Mn8  1  0.000000  0.000000  0.500000  1
  O  O9  2  0.228578  0.246781  0.987604  1
  O  O10  2  0.257272  0.232015  0.650369  1
  O  O11  2  0.258023  0.786277  0.809154  1
  O  O12  2  0.259293  0.770403  0.179342  1
  O  O13  2  0.262118  0.228262  0.322603  1
  O  O14  2  0.268288  0.785778  0.491394  1
